<?xml version="1.0" encoding="UTF-8"?>

<!-- generated on 2024-06-01 06:42:14.535867 by osmWebWizard.py v1_18_0+0000-03ecfdea036
<configuration>
    <net-file value="/home/veins/workspace.omnetpp/veins/examples/veins/maps/beijing_500/osm.net.xml.gz"/>
    <output-trip-file value="/home/veins/workspace.omnetpp/veins/examples/veins/maps/beijing_500/osm.passenger.trips.xml"/>
    <route-file value="/home/veins/workspace.omnetpp/veins/examples/veins/maps/beijing_500/osm.passenger.rou.xml"/>
    <prefix value="veh"/>
    <trip-attributes value="departLane=&quot;best&quot;"/>
    <fringe-start-attributes value="departSpeed=&quot;max&quot;"/>
    <vehicle-class value="passenger"/>
    <lanes value="True"/>
    <fringe-factor value="5"/>
    <allow-fringe.min-length value="1000.0"/>
    <via-edge-types value="highway.motorway,highway.motorway_link,highway.trunk_link,highway.primary_link,highway.secondary_link,highway.tertiary_link"/>
    <min-distance value="300.0"/>
    <min-distance.fringe value="10.0"/>
    <remove-loops value="True"/>
    <validate value="True"/>
    <insertion-density value="500.0"/>
</configuration>
-->

<!-- generated on 2024-06-01 06:42:14 by Eclipse SUMO duarouter Version 1.18.0
<configuration xmlns:xsi="http://www.w3.org/2001/XMLSchema-instance" xsi:noNamespaceSchemaLocation="http://sumo.dlr.de/xsd/duarouterConfiguration.xsd">

    <input>
        <net-file value="/home/veins/workspace.omnetpp/veins/examples/veins/maps/beijing_500/osm.net.xml.gz"/>
        <route-files value="/home/veins/workspace.omnetpp/veins/examples/veins/maps/beijing_500/osm.passenger.trips.xml"/>
    </input>

    <output>
        <output-file value="/home/veins/workspace.omnetpp/veins/examples/veins/maps/beijing_500/osm.passenger.trips.xml.tmp"/>
        <alternatives-output value="NUL"/>
        <write-trips value="true"/>
    </output>

    <processing>
        <remove-loops value="true"/>
    </processing>

    <time>
        <begin value="0.0"/>
        <end value="3600.0"/>
    </time>

    <report>
        <no-warnings value="true"/>
        <ignore-errors value="true"/>
        <no-step-log value="true"/>
    </report>

</configuration>
-->

<routes xmlns:xsi="http://www.w3.org/2001/XMLSchema-instance" xsi:noNamespaceSchemaLocation="http://sumo.dlr.de/xsd/routes_file.xsd">
    <vType id="veh_passenger" vClass="passenger"/>
    <trip id="veh0" type="veh_passenger" depart="0.00" departLane="best" departSpeed="max" from="1061456423" to="1071049924"/>
    <trip id="veh1" type="veh_passenger" depart="0.56" departLane="best" departSpeed="max" from="175598144#0" to="30834259"/>
    <trip id="veh3" type="veh_passenger" depart="1.67" departLane="best" departSpeed="max" from="1061456423" to="1071049924"/>
    <trip id="veh4" type="veh_passenger" depart="2.22" departLane="best" departSpeed="max" from="1051962154" to="30834259"/>
    <trip id="veh5" type="veh_passenger" depart="2.78" departLane="best" departSpeed="max" from="1051962154" to="1071049924"/>
    <trip id="veh6" type="veh_passenger" depart="3.33" departLane="best" departSpeed="max" from="175598144#0" to="30834259"/>
    <trip id="veh7" type="veh_passenger" depart="3.89" departLane="best" departSpeed="max" from="1051962154" to="30834259"/>
    <trip id="veh9" type="veh_passenger" depart="5.00" departLane="best" departSpeed="max" from="225935793#0" to="30834259"/>
    <trip id="veh10" type="veh_passenger" depart="5.55" departLane="best" departSpeed="max" from="1061456423" to="1071049924"/>
    <trip id="veh11" type="veh_passenger" depart="6.11" departLane="best" departSpeed="max" from="1051962154" to="1071049924"/>
    <trip id="veh12" type="veh_passenger" depart="6.66" departLane="best" departSpeed="max" from="225935793#0" to="30834259"/>
    <trip id="veh13" type="veh_passenger" depart="7.22" departLane="best" departSpeed="max" from="225935793#0" to="30834259"/>
    <trip id="veh14" type="veh_passenger" depart="7.77" departLane="best" departSpeed="max" from="175598144#0" to="30838709"/>
    <trip id="veh15" type="veh_passenger" depart="8.33" departLane="best" departSpeed="max" from="225935793#0" to="30834259"/>
    <trip id="veh16" type="veh_passenger" depart="8.88" departLane="best" departSpeed="max" from="225935793#0" to="30834259"/>
    <trip id="veh17" type="veh_passenger" depart="9.44" departLane="best" departSpeed="max" from="1051962154" to="30042374"/>
    <trip id="veh18" type="veh_passenger" depart="9.99" departLane="best" departSpeed="max" from="1051962154" to="1071049924"/>
    <trip id="veh19" type="veh_passenger" depart="10.55" departLane="best" departSpeed="max" from="1051962154" to="30042374"/>
    <trip id="veh20" type="veh_passenger" depart="11.10" departLane="best" departSpeed="max" from="175598144#0" to="30042374"/>
    <trip id="veh21" type="veh_passenger" depart="11.66" departLane="best" departSpeed="max" from="1061456423" to="1071049924"/>
    <trip id="veh22" type="veh_passenger" depart="12.22" departLane="best" departSpeed="max" from="1061456423" to="30838709"/>
    <trip id="veh23" type="veh_passenger" depart="12.77" departLane="best" departSpeed="max" from="175598144#0" to="30834259"/>
    <trip id="veh24" type="veh_passenger" depart="13.33" departLane="best" departSpeed="max" from="1051962154" to="30834259"/>
    <trip id="veh25" type="veh_passenger" depart="13.88" departLane="best" departSpeed="max" from="1051962154" to="30042374"/>
    <trip id="veh26" type="veh_passenger" depart="14.44" departLane="best" departSpeed="max" from="225935793#0" to="30834259"/>
    <trip id="veh27" type="veh_passenger" depart="14.99" departLane="best" departSpeed="max" from="175598144#0" to="30834259"/>
    <trip id="veh29" type="veh_passenger" depart="16.10" departLane="best" departSpeed="max" from="1051962154" to="1071049924"/>
    <trip id="veh30" type="veh_passenger" depart="16.66" departLane="best" departSpeed="max" from="1061456423" to="30042374"/>
    <trip id="veh31" type="veh_passenger" depart="17.21" departLane="best" departSpeed="max" from="175598144#0" to="30042374"/>
    <trip id="veh32" type="veh_passenger" depart="17.77" departLane="best" departSpeed="max" from="1061456423" to="1071049924"/>
    <trip id="veh33" type="veh_passenger" depart="18.32" departLane="best" departSpeed="max" from="175598144#0" to="30042374"/>
    <trip id="veh34" type="veh_passenger" depart="18.88" departLane="best" departSpeed="max" from="175598144#0" to="30838709"/>
    <trip id="veh35" type="veh_passenger" depart="19.43" departLane="best" departSpeed="max" from="1061456423" to="1071049924"/>
    <trip id="veh36" type="veh_passenger" depart="19.99" departLane="best" departSpeed="max" from="225935793#0" to="30834259"/>
    <trip id="veh37" type="veh_passenger" depart="20.54" departLane="best" departSpeed="max" from="1051962154" to="1071049924"/>
    <trip id="veh38" type="veh_passenger" depart="21.10" departLane="best" departSpeed="max" from="1051962154" to="30834259"/>
    <trip id="veh39" type="veh_passenger" depart="21.65" departLane="best" departSpeed="max" from="1051962154" to="30042374"/>
    <trip id="veh40" type="veh_passenger" depart="22.21" departLane="best" departSpeed="max" from="225935793#0" to="30834259"/>
    <trip id="veh42" type="veh_passenger" depart="23.32" departLane="best" departSpeed="max" from="1051962154" to="30834259"/>
    <trip id="veh43" type="veh_passenger" depart="23.87" departLane="best" departSpeed="max" from="175598144#0" to="30834259"/>
    <trip id="veh44" type="veh_passenger" depart="24.43" departLane="best" departSpeed="max" from="1051962154" to="30042374"/>
    <trip id="veh45" type="veh_passenger" depart="24.99" departLane="best" departSpeed="max" from="1061456423" to="30838709"/>
    <trip id="veh47" type="veh_passenger" depart="26.10" departLane="best" departSpeed="max" from="225935793#0" to="30834259"/>
    <trip id="veh48" type="veh_passenger" depart="26.65" departLane="best" departSpeed="max" from="225935793#0" to="30834259"/>
    <trip id="veh49" type="veh_passenger" depart="27.21" departLane="best" departSpeed="max" from="1051962154" to="30042374"/>
    <trip id="veh51" type="veh_passenger" depart="28.32" departLane="best" departSpeed="max" from="1061456423" to="1071049924"/>
    <trip id="veh53" type="veh_passenger" depart="29.43" departLane="best" departSpeed="max" from="1051962154" to="30042374"/>
    <trip id="veh55" type="veh_passenger" depart="30.54" departLane="best" departSpeed="max" from="1061456423" to="30838709"/>
    <trip id="veh56" type="veh_passenger" depart="31.09" departLane="best" departSpeed="max" from="1061456423" to="1071049924"/>
    <trip id="veh57" type="veh_passenger" depart="31.65" departLane="best" departSpeed="max" from="175598144#0" to="30834259"/>
    <trip id="veh58" type="veh_passenger" depart="32.20" departLane="best" departSpeed="max" from="1051962154" to="30042374"/>
    <trip id="veh59" type="veh_passenger" depart="32.76" departLane="best" departSpeed="max" from="225935793#0" to="30834259"/>
    <trip id="veh60" type="veh_passenger" depart="33.31" departLane="best" departSpeed="max" from="1051962154" to="1071049924"/>
    <trip id="veh61" type="veh_passenger" depart="33.87" departLane="best" departSpeed="max" from="1051962154" to="1071049924"/>
    <trip id="veh62" type="veh_passenger" depart="34.42" departLane="best" departSpeed="max" from="1051962154" to="30834259"/>
    <trip id="veh64" type="veh_passenger" depart="35.53" departLane="best" departSpeed="max" from="1051962154" to="30834259"/>
    <trip id="veh65" type="veh_passenger" depart="36.09" departLane="best" departSpeed="max" from="1051962154" to="1071049924"/>
    <trip id="veh66" type="veh_passenger" depart="36.65" departLane="best" departSpeed="max" from="225935793#0" to="30834259"/>
    <trip id="veh67" type="veh_passenger" depart="37.20" departLane="best" departSpeed="max" from="1061456423" to="30838709"/>
    <trip id="veh69" type="veh_passenger" depart="38.31" departLane="best" departSpeed="max" from="1051962154" to="30042374"/>
    <trip id="veh70" type="veh_passenger" depart="38.87" departLane="best" departSpeed="max" from="1061456423" to="30042374"/>
    <trip id="veh71" type="veh_passenger" depart="39.42" departLane="best" departSpeed="max" from="175598144#0" to="30834259"/>
    <trip id="veh73" type="veh_passenger" depart="40.53" departLane="best" departSpeed="max" from="1061456423" to="30042374"/>
    <trip id="veh75" type="veh_passenger" depart="41.64" departLane="best" departSpeed="max" from="1051962154" to="30042374"/>
    <trip id="veh76" type="veh_passenger" depart="42.20" departLane="best" departSpeed="max" from="1061456423" to="30042374"/>
    <trip id="veh77" type="veh_passenger" depart="42.75" departLane="best" departSpeed="max" from="1061456423" to="30838709"/>
    <trip id="veh81" type="veh_passenger" depart="44.97" departLane="best" departSpeed="max" from="1061456423" to="1071049924"/>
    <trip id="veh82" type="veh_passenger" depart="45.53" departLane="best" departSpeed="max" from="1061456423" to="1071049924"/>
    <trip id="veh83" type="veh_passenger" depart="46.08" departLane="best" departSpeed="max" from="1061456423" to="30838709"/>
    <trip id="veh84" type="veh_passenger" depart="46.64" departLane="best" departSpeed="max" from="1061456423" to="30838709"/>
    <trip id="veh85" type="veh_passenger" depart="47.19" departLane="best" departSpeed="max" from="1061456423" to="30042374"/>
    <trip id="veh87" type="veh_passenger" depart="48.30" departLane="best" departSpeed="max" from="175598144#0" to="30834259"/>
    <trip id="veh88" type="veh_passenger" depart="48.86" departLane="best" departSpeed="max" from="1051962154" to="30042374"/>
    <trip id="veh89" type="veh_passenger" depart="49.42" departLane="best" departSpeed="max" from="225935793#0" to="30834259"/>
    <trip id="veh90" type="veh_passenger" depart="49.97" departLane="best" departSpeed="max" from="175598144#0" to="30834259"/>
    <trip id="veh91" type="veh_passenger" depart="50.53" departLane="best" departSpeed="max" from="1051962154" to="30834259"/>
    <trip id="veh92" type="veh_passenger" depart="51.08" departLane="best" departSpeed="max" from="175598144#0" to="30838709"/>
    <trip id="veh93" type="veh_passenger" depart="51.64" departLane="best" departSpeed="max" from="1051962154" to="1071049924"/>
    <trip id="veh94" type="veh_passenger" depart="52.19" departLane="best" departSpeed="max" from="175598144#0" to="30834259"/>
    <trip id="veh95" type="veh_passenger" depart="52.75" departLane="best" departSpeed="max" from="1051962154" to="1071049924"/>
    <trip id="veh97" type="veh_passenger" depart="53.86" departLane="best" departSpeed="max" from="175598144#0" to="30834259"/>
    <trip id="veh98" type="veh_passenger" depart="54.41" departLane="best" departSpeed="max" from="175598144#0" to="30838709"/>
    <trip id="veh99" type="veh_passenger" depart="54.97" departLane="best" departSpeed="max" from="1051962154" to="30834259"/>
    <trip id="veh100" type="veh_passenger" depart="55.52" departLane="best" departSpeed="max" from="1051962154" to="30042374"/>
    <trip id="veh101" type="veh_passenger" depart="56.08" departLane="best" departSpeed="max" from="175598144#0" to="30042374"/>
    <trip id="veh102" type="veh_passenger" depart="56.63" departLane="best" departSpeed="max" from="1061456423" to="30838709"/>
    <trip id="veh103" type="veh_passenger" depart="57.19" departLane="best" departSpeed="max" from="1051962154" to="30042374"/>
    <trip id="veh105" type="veh_passenger" depart="58.30" departLane="best" departSpeed="max" from="1051962154" to="1071049924"/>
    <trip id="veh106" type="veh_passenger" depart="58.85" departLane="best" departSpeed="max" from="1061456423" to="30838709"/>
    <trip id="veh108" type="veh_passenger" depart="59.96" departLane="best" departSpeed="max" from="1061456423" to="1071049924"/>
    <trip id="veh109" type="veh_passenger" depart="60.52" departLane="best" departSpeed="max" from="225935793#0" to="30834259"/>
    <trip id="veh110" type="veh_passenger" depart="61.08" departLane="best" departSpeed="max" from="175598144#0" to="30838709"/>
    <trip id="veh111" type="veh_passenger" depart="61.63" departLane="best" departSpeed="max" from="175598144#0" to="30838709"/>
    <trip id="veh112" type="veh_passenger" depart="62.19" departLane="best" departSpeed="max" from="1051962154" to="1071049924"/>
    <trip id="veh113" type="veh_passenger" depart="62.74" departLane="best" departSpeed="max" from="1051962154" to="30834259"/>
    <trip id="veh114" type="veh_passenger" depart="63.30" departLane="best" departSpeed="max" from="175598144#0" to="30042374"/>
    <trip id="veh115" type="veh_passenger" depart="63.85" departLane="best" departSpeed="max" from="1061456423" to="30838709"/>
    <trip id="veh117" type="veh_passenger" depart="64.96" departLane="best" departSpeed="max" from="1061456423" to="30042374"/>
    <trip id="veh118" type="veh_passenger" depart="65.52" departLane="best" departSpeed="max" from="175598144#0" to="30042374"/>
    <trip id="veh119" type="veh_passenger" depart="66.07" departLane="best" departSpeed="max" from="175598144#0" to="30834259"/>
    <trip id="veh120" type="veh_passenger" depart="66.63" departLane="best" departSpeed="max" from="1061456423" to="1071049924"/>
    <trip id="veh121" type="veh_passenger" depart="67.18" departLane="best" departSpeed="max" from="225935793#0" to="30834259"/>
    <trip id="veh122" type="veh_passenger" depart="67.74" departLane="best" departSpeed="max" from="225935793#0" to="30834259"/>
    <trip id="veh123" type="veh_passenger" depart="68.29" departLane="best" departSpeed="max" from="1051962154" to="1071049924"/>
    <trip id="veh124" type="veh_passenger" depart="68.85" departLane="best" departSpeed="max" from="1061456423" to="30838709"/>
    <trip id="veh127" type="veh_passenger" depart="70.51" departLane="best" departSpeed="max" from="1051962154" to="1071049924"/>
    <trip id="veh131" type="veh_passenger" depart="72.73" departLane="best" departSpeed="max" from="1051962154" to="30834259"/>
    <trip id="veh132" type="veh_passenger" depart="73.29" departLane="best" departSpeed="max" from="1061456423" to="30838709"/>
    <trip id="veh136" type="veh_passenger" depart="75.51" departLane="best" departSpeed="max" from="1061456423" to="30042374"/>
    <trip id="veh138" type="veh_passenger" depart="76.62" departLane="best" departSpeed="max" from="1051962154" to="1071049924"/>
    <trip id="veh139" type="veh_passenger" depart="77.18" departLane="best" departSpeed="max" from="1061456423" to="30838709"/>
    <trip id="veh140" type="veh_passenger" depart="77.73" departLane="best" departSpeed="max" from="175598144#0" to="30042374"/>
    <trip id="veh141" type="veh_passenger" depart="78.29" departLane="best" departSpeed="max" from="225935793#0" to="30834259"/>
    <trip id="veh144" type="veh_passenger" depart="79.95" departLane="best" departSpeed="max" from="1051962154" to="30042374"/>
    <trip id="veh145" type="veh_passenger" depart="80.51" departLane="best" departSpeed="max" from="175598144#0" to="30042374"/>
    <trip id="veh146" type="veh_passenger" depart="81.06" departLane="best" departSpeed="max" from="175598144#0" to="30834259"/>
    <trip id="veh147" type="veh_passenger" depart="81.62" departLane="best" departSpeed="max" from="175598144#0" to="30834259"/>
    <trip id="veh148" type="veh_passenger" depart="82.17" departLane="best" departSpeed="max" from="175598144#0" to="30834259"/>
    <trip id="veh149" type="veh_passenger" depart="82.73" departLane="best" departSpeed="max" from="1061456423" to="1071049924"/>
    <trip id="veh150" type="veh_passenger" depart="83.28" departLane="best" departSpeed="max" from="175598144#0" to="30042374"/>
    <trip id="veh151" type="veh_passenger" depart="83.84" departLane="best" departSpeed="max" from="1061456423" to="30838709"/>
    <trip id="veh152" type="veh_passenger" depart="84.39" departLane="best" departSpeed="max" from="175598144#0" to="30042374"/>
    <trip id="veh153" type="veh_passenger" depart="84.95" departLane="best" departSpeed="max" from="1061456423" to="30042374"/>
    <trip id="veh154" type="veh_passenger" depart="85.51" departLane="best" departSpeed="max" from="1061456423" to="30042374"/>
    <trip id="veh155" type="veh_passenger" depart="86.06" departLane="best" departSpeed="max" from="1051962154" to="30042374"/>
    <trip id="veh156" type="veh_passenger" depart="86.62" departLane="best" departSpeed="max" from="225935793#0" to="30834259"/>
    <trip id="veh157" type="veh_passenger" depart="87.17" departLane="best" departSpeed="max" from="225935793#0" to="30834259"/>
    <trip id="veh158" type="veh_passenger" depart="87.73" departLane="best" departSpeed="max" from="1051962154" to="30042374"/>
    <trip id="veh159" type="veh_passenger" depart="88.28" departLane="best" departSpeed="max" from="175598144#0" to="30042374"/>
    <trip id="veh160" type="veh_passenger" depart="88.84" departLane="best" departSpeed="max" from="1061456423" to="1071049924"/>
    <trip id="veh161" type="veh_passenger" depart="89.39" departLane="best" departSpeed="max" from="1061456423" to="30838709"/>
    <trip id="veh163" type="veh_passenger" depart="90.50" departLane="best" departSpeed="max" from="1051962154" to="30834259"/>
    <trip id="veh164" type="veh_passenger" depart="91.06" departLane="best" departSpeed="max" from="175598144#0" to="30042374"/>
    <trip id="veh166" type="veh_passenger" depart="92.17" departLane="best" departSpeed="max" from="1051962154" to="1071049924"/>
    <trip id="veh167" type="veh_passenger" depart="92.72" departLane="best" departSpeed="max" from="1051962154" to="30042374"/>
    <trip id="veh169" type="veh_passenger" depart="93.83" departLane="best" departSpeed="max" from="1051962154" to="30834259"/>
    <trip id="veh170" type="veh_passenger" depart="94.39" departLane="best" departSpeed="max" from="1061456423" to="1071049924"/>
    <trip id="veh172" type="veh_passenger" depart="95.50" departLane="best" departSpeed="max" from="1051962154" to="30042374"/>
    <trip id="veh173" type="veh_passenger" depart="96.05" departLane="best" departSpeed="max" from="1061456423" to="30838709"/>
    <trip id="veh174" type="veh_passenger" depart="96.61" departLane="best" departSpeed="max" from="175598144#0" to="30838709"/>
    <trip id="veh175" type="veh_passenger" depart="97.16" departLane="best" departSpeed="max" from="175598144#0" to="30838709"/>
    <trip id="veh176" type="veh_passenger" depart="97.72" departLane="best" departSpeed="max" from="225935793#0" to="30834259"/>
    <trip id="veh177" type="veh_passenger" depart="98.28" departLane="best" departSpeed="max" from="175598144#0" to="30834259"/>
    <trip id="veh178" type="veh_passenger" depart="98.83" departLane="best" departSpeed="max" from="225935793#0" to="30834259"/>
    <trip id="veh179" type="veh_passenger" depart="99.39" departLane="best" departSpeed="max" from="225935793#0" to="30834259"/>
    <trip id="veh180" type="veh_passenger" depart="99.94" departLane="best" departSpeed="max" from="1061456423" to="30042374"/>
    <trip id="veh181" type="veh_passenger" depart="100.50" departLane="best" departSpeed="max" from="1051962154" to="30834259"/>
    <trip id="veh182" type="veh_passenger" depart="101.05" departLane="best" departSpeed="max" from="225935793#0" to="30834259"/>
    <trip id="veh183" type="veh_passenger" depart="101.61" departLane="best" departSpeed="max" from="175598144#0" to="30042374"/>
    <trip id="veh184" type="veh_passenger" depart="102.16" departLane="best" departSpeed="max" from="1051962154" to="30042374"/>
    <trip id="veh185" type="veh_passenger" depart="102.72" departLane="best" departSpeed="max" from="1061456423" to="30042374"/>
    <trip id="veh186" type="veh_passenger" depart="103.27" departLane="best" departSpeed="max" from="1051962154" to="30834259"/>
    <trip id="veh187" type="veh_passenger" depart="103.83" departLane="best" departSpeed="max" from="1061456423" to="1071049924"/>
    <trip id="veh188" type="veh_passenger" depart="104.38" departLane="best" departSpeed="max" from="1061456423" to="30838709"/>
    <trip id="veh189" type="veh_passenger" depart="104.94" departLane="best" departSpeed="max" from="175598144#0" to="30834259"/>
    <trip id="veh191" type="veh_passenger" depart="106.05" departLane="best" departSpeed="max" from="1061456423" to="1071049924"/>
    <trip id="veh192" type="veh_passenger" depart="106.60" departLane="best" departSpeed="max" from="1061456423" to="30838709"/>
    <trip id="veh194" type="veh_passenger" depart="107.71" departLane="best" departSpeed="max" from="175598144#0" to="30834259"/>
    <trip id="veh195" type="veh_passenger" depart="108.27" departLane="best" departSpeed="max" from="1051962154" to="1071049924"/>
    <trip id="veh196" type="veh_passenger" depart="108.82" departLane="best" departSpeed="max" from="1061456423" to="1071049924"/>
    <trip id="veh197" type="veh_passenger" depart="109.38" departLane="best" departSpeed="max" from="1061456423" to="1071049924"/>
    <trip id="veh198" type="veh_passenger" depart="109.94" departLane="best" departSpeed="max" from="1061456423" to="1071049924"/>
    <trip id="veh199" type="veh_passenger" depart="110.49" departLane="best" departSpeed="max" from="1051962154" to="30834259"/>
    <trip id="veh200" type="veh_passenger" depart="111.05" departLane="best" departSpeed="max" from="1051962154" to="30042374"/>
    <trip id="veh201" type="veh_passenger" depart="111.60" departLane="best" departSpeed="max" from="1051962154" to="30042374"/>
    <trip id="veh202" type="veh_passenger" depart="112.16" departLane="best" departSpeed="max" from="1051962154" to="30042374"/>
    <trip id="veh204" type="veh_passenger" depart="113.27" departLane="best" departSpeed="max" from="1061456423" to="1071049924"/>
    <trip id="veh205" type="veh_passenger" depart="113.82" departLane="best" departSpeed="max" from="1051962154" to="30834259"/>
    <trip id="veh206" type="veh_passenger" depart="114.38" departLane="best" departSpeed="max" from="175598144#0" to="30838709"/>
    <trip id="veh207" type="veh_passenger" depart="114.93" departLane="best" departSpeed="max" from="175598144#0" to="30838709"/>
    <trip id="veh209" type="veh_passenger" depart="116.04" departLane="best" departSpeed="max" from="1051962154" to="1071049924"/>
    <trip id="veh210" type="veh_passenger" depart="116.60" departLane="best" departSpeed="max" from="1051962154" to="30834259"/>
    <trip id="veh211" type="veh_passenger" depart="117.15" departLane="best" departSpeed="max" from="175598144#0" to="30838709"/>
    <trip id="veh212" type="veh_passenger" depart="117.71" departLane="best" departSpeed="max" from="1051962154" to="30834259"/>
    <trip id="veh214" type="veh_passenger" depart="118.82" departLane="best" departSpeed="max" from="1051962154" to="1071049924"/>
    <trip id="veh215" type="veh_passenger" depart="119.37" departLane="best" departSpeed="max" from="175598144#0" to="30834259"/>
    <trip id="veh216" type="veh_passenger" depart="119.93" departLane="best" departSpeed="max" from="225935793#0" to="30834259"/>
    <trip id="veh217" type="veh_passenger" depart="120.48" departLane="best" departSpeed="max" from="1061456423" to="30042374"/>
    <trip id="veh218" type="veh_passenger" depart="121.04" departLane="best" departSpeed="max" from="175598144#0" to="30042374"/>
    <trip id="veh220" type="veh_passenger" depart="122.15" departLane="best" departSpeed="max" from="175598144#0" to="30838709"/>
    <trip id="veh221" type="veh_passenger" depart="122.71" departLane="best" departSpeed="max" from="175598144#0" to="30042374"/>
    <trip id="veh222" type="veh_passenger" depart="123.26" departLane="best" departSpeed="max" from="175598144#0" to="30838709"/>
    <trip id="veh223" type="veh_passenger" depart="123.82" departLane="best" departSpeed="max" from="1061456423" to="30838709"/>
    <trip id="veh224" type="veh_passenger" depart="124.37" departLane="best" departSpeed="max" from="175598144#0" to="30042374"/>
    <trip id="veh225" type="veh_passenger" depart="124.93" departLane="best" departSpeed="max" from="1061456423" to="30838709"/>
    <trip id="veh228" type="veh_passenger" depart="126.59" departLane="best" departSpeed="max" from="1061456423" to="1071049924"/>
    <trip id="veh230" type="veh_passenger" depart="127.70" departLane="best" departSpeed="max" from="1061456423" to="30838709"/>
    <trip id="veh231" type="veh_passenger" depart="128.26" departLane="best" departSpeed="max" from="175598144#0" to="30042374"/>
    <trip id="veh232" type="veh_passenger" depart="128.81" departLane="best" departSpeed="max" from="1051962154" to="30834259"/>
    <trip id="veh233" type="veh_passenger" depart="129.37" departLane="best" departSpeed="max" from="1061456423" to="30838709"/>
    <trip id="veh234" type="veh_passenger" depart="129.92" departLane="best" departSpeed="max" from="175598144#0" to="30834259"/>
    <trip id="veh235" type="veh_passenger" depart="130.48" departLane="best" departSpeed="max" from="1061456423" to="30838709"/>
    <trip id="veh236" type="veh_passenger" depart="131.03" departLane="best" departSpeed="max" from="1051962154" to="1071049924"/>
    <trip id="veh237" type="veh_passenger" depart="131.59" departLane="best" departSpeed="max" from="175598144#0" to="30042374"/>
    <trip id="veh238" type="veh_passenger" depart="132.14" departLane="best" departSpeed="max" from="175598144#0" to="30042374"/>
    <trip id="veh239" type="veh_passenger" depart="132.70" departLane="best" departSpeed="max" from="175598144#0" to="30042374"/>
    <trip id="veh240" type="veh_passenger" depart="133.25" departLane="best" departSpeed="max" from="175598144#0" to="30042374"/>
    <trip id="veh241" type="veh_passenger" depart="133.81" departLane="best" departSpeed="max" from="175598144#0" to="30042374"/>
    <trip id="veh242" type="veh_passenger" depart="134.37" departLane="best" departSpeed="max" from="1061456423" to="1071049924"/>
    <trip id="veh243" type="veh_passenger" depart="134.92" departLane="best" departSpeed="max" from="1051962154" to="1071049924"/>
    <trip id="veh244" type="veh_passenger" depart="135.48" departLane="best" departSpeed="max" from="175598144#0" to="30838709"/>
    <trip id="veh245" type="veh_passenger" depart="136.03" departLane="best" departSpeed="max" from="1051962154" to="1071049924"/>
    <trip id="veh246" type="veh_passenger" depart="136.59" departLane="best" departSpeed="max" from="225935793#0" to="30834259"/>
    <trip id="veh247" type="veh_passenger" depart="137.14" departLane="best" departSpeed="max" from="1061456423" to="1071049924"/>
    <trip id="veh248" type="veh_passenger" depart="137.70" departLane="best" departSpeed="max" from="1051962154" to="1071049924"/>
    <trip id="veh249" type="veh_passenger" depart="138.25" departLane="best" departSpeed="max" from="1051962154" to="1071049924"/>
    <trip id="veh250" type="veh_passenger" depart="138.81" departLane="best" departSpeed="max" from="175598144#0" to="30042374"/>
    <trip id="veh251" type="veh_passenger" depart="139.36" departLane="best" departSpeed="max" from="225935793#0" to="30834259"/>
    <trip id="veh252" type="veh_passenger" depart="139.92" departLane="best" departSpeed="max" from="225935793#0" to="30834259"/>
    <trip id="veh253" type="veh_passenger" depart="140.47" departLane="best" departSpeed="max" from="1061456423" to="30042374"/>
    <trip id="veh254" type="veh_passenger" depart="141.03" departLane="best" departSpeed="max" from="1051962154" to="1071049924"/>
    <trip id="veh255" type="veh_passenger" depart="141.58" departLane="best" departSpeed="max" from="1051962154" to="30834259"/>
    <trip id="veh256" type="veh_passenger" depart="142.14" departLane="best" departSpeed="max" from="1051962154" to="1071049924"/>
    <trip id="veh257" type="veh_passenger" depart="142.69" departLane="best" departSpeed="max" from="175598144#0" to="30042374"/>