<?xml version="1.0" encoding="UTF-8"?>

<!-- generated on 2022-12-17 02:08:49 by Eclipse SUMO netedit Version 1.14.1
<configuration xmlns:xsi="http://www.w3.org/2001/XMLSchema-instance" xsi:noNamespaceSchemaLocation="http://sumo.dlr.de/xsd/netconvertConfiguration.xsd">

    <input>
        <sumo-net-file value="/home/wangzhi/Documents/CAVLight/simp_plymouth/simp_plymouth.net.xml"/>
    </input>

    <output>
        <output-file value="/home/wangzhi/Documents/CAVLight/simp_plymouth/simp_plymouth.net.xml"/>
    </output>

    <processing>
        <geometry.min-radius.fix.railways value="false"/>
        <geometry.max-grade.fix value="false"/>
        <offset.disable-normalization value="true"/>
        <lefthand value="false"/>
    </processing>

    <junctions>
        <no-turnarounds value="true"/>
        <junctions.corner-detail value="5"/>
        <junctions.limit-turn-speed value="5.5"/>
        <rectangular-lane-cut value="false"/>
    </junctions>

    <pedestrian>
        <walkingareas value="false"/>
    </pedestrian>

</configuration>
-->

<net version="1.9" junctionCornerDetail="5" limitTurnSpeed="5.50" xmlns:xsi="http://www.w3.org/2001/XMLSchema-instance" xsi:noNamespaceSchemaLocation="http://sumo.dlr.de/xsd/net_file.xsd">

    <location netOffset="0.00,0.00" convBoundary="-200.00,-200.00,200.00,200.00" origBoundary="-10000000000.00,-10000000000.00,10000000000.00,10000000000.00" projParameter="!"/>

    <edge id=":J1_0" function="internal">
        <lane id=":J1_0_0" index="0" speed="8.10" length="14.57" shape="-11.20,16.80 -11.55,11.55 -12.60,7.80 -14.35,5.55 -16.80,4.80"/>
    </edge>
    <edge id=":J1_1" function="internal">
        <lane id=":J1_1_0" index="0" speed="13.89" length="34.06" shape="-8.00,16.80 -7.50,5.84 -6.40,-2.58 -5.30,-9.70 -4.80,-16.80"/>
        <lane id=":J1_1_1" index="1" speed="13.89" length="34.06" shape="-8.00,16.80 -7.00,5.74 -4.80,-2.66 -2.60,-9.74 -1.60,-16.80"/>
    </edge>
    <edge id=":J1_3" function="internal">
        <lane id=":J1_3_0" index="0" speed="11.84" length="32.30" shape="-4.80,16.80 -3.65,7.35 -0.20,0.60 5.55,-3.45 13.60,-4.80"/>
        <lane id=":J1_3_1" index="1" speed="10.88" length="27.14" shape="-1.60,16.80 -0.65,8.75 2.20,3.00 6.95,-0.45 13.60,-1.60"/>
    </edge>
    <edge id=":J1_5" function="internal">
        <lane id=":J1_5_0" index="0" speed="7.33" length="11.73" shape="13.60,11.20 9.75,11.55 7.00,12.60 5.35,14.35 4.80,16.80"/>
    </edge>
    <edge id=":J1_6" function="internal">
        <lane id=":J1_6_0" index="0" speed="13.89" length="30.61" shape="13.60,8.00 3.81,7.50 -3.58,6.40 -9.98,5.30 -16.80,4.80"/>
        <lane id=":J1_6_1" index="1" speed="13.89" length="30.61" shape="13.60,4.80 3.81,4.30 -3.58,3.20 -9.98,2.10 -16.80,1.60"/>
    </edge>
    <edge id=":J1_8" function="internal">
        <lane id=":J1_8_0" index="0" speed="10.88" length="27.14" shape="13.60,1.60 6.95,0.45 2.20,-3.00 -0.65,-8.75 -1.60,-16.80"/>
    </edge>
    <edge id=":J1_9" function="internal">
        <lane id=":J1_9_0" index="0" speed="7.33" length="11.73" shape="8.00,-16.80 8.35,-12.95 9.40,-10.20 11.15,-8.55 13.60,-8.00"/>
    </edge>
    <edge id=":J1_10" function="internal">
        <lane id=":J1_10_0" index="0" speed="13.89" length="33.78" shape="4.80,-16.80 4.30,-6.63 3.20,1.87 2.10,9.44 1.60,16.80"/>
    </edge>
    <edge id=":J1_11" function="internal">
        <lane id=":J1_11_0" index="0" speed="11.36" length="29.67" shape="1.60,-16.80 0.45,-8.75 -3.00,-3.00 -8.75,0.45 -16.80,1.60"/>
    </edge>
    <edge id=":J1_12" function="internal">
        <lane id=":J1_12_0" index="0" speed="8.10" length="14.57" shape="-16.80,-11.20 -11.55,-11.55 -7.80,-12.60 -5.55,-14.35 -4.80,-16.80"/>
    </edge>
    <edge id=":J1_13" function="internal">
        <lane id=":J1_13_0" index="0" speed="13.89" length="30.40" shape="-16.80,-8.00 13.60,-8.00"/>
        <lane id=":J1_13_1" index="1" speed="13.89" length="30.40" shape="-16.80,-4.80 13.60,-4.80"/>
    </edge>
    <edge id=":J1_15" function="internal">
        <lane id=":J1_15_0" index="0" speed="11.36" length="29.67" shape="-16.80,-1.60 -8.75,-0.45 -3.00,3.00 0.45,8.75 1.60,16.80"/>
    </edge>

    <edge id="-E3" from="J1" to="J0" priority="-1">
        <lane id="-E3_0" index="0" speed="13.89" length="183.20" shape="-16.80,4.80 -200.00,4.80"/>
        <lane id="-E3_1" index="1" speed="13.89" length="183.20" shape="-16.80,1.60 -200.00,1.60"/>
    </edge>
    <edge id="-E4" from="J2" to="J1" priority="-1">
        <lane id="-E4_0" index="0" speed="13.89" length="186.40" shape="200.00,11.20 13.60,11.20"/>
        <lane id="-E4_1" index="1" speed="13.89" length="186.40" shape="200.00,8.00 13.60,8.00"/>
        <lane id="-E4_2" index="2" speed="13.89" length="186.40" shape="200.00,4.80 13.60,4.80"/>
        <lane id="-E4_3" index="3" speed="13.89" length="186.40" shape="200.00,1.60 13.60,1.60"/>
    </edge>
    <edge id="-E5" from="J1" to="J3" priority="-1">
        <lane id="-E5_0" index="0" speed="13.89" length="183.20" shape="-4.80,-16.80 -4.80,-200.00"/>
        <lane id="-E5_1" index="1" speed="13.89" length="183.20" shape="-1.60,-16.80 -1.60,-200.00"/>
    </edge>
    <edge id="-E6" from="J4" to="J1" priority="-1">
        <lane id="-E6_0" index="0" speed="13.89" length="183.20" shape="-11.20,200.00 -11.20,16.80"/>
        <lane id="-E6_1" index="1" speed="13.89" length="183.20" shape="-8.00,200.00 -8.00,16.80"/>
        <lane id="-E6_2" index="2" speed="13.89" length="183.20" shape="-4.80,200.00 -4.80,16.80"/>
        <lane id="-E6_3" index="3" speed="13.89" length="183.20" shape="-1.60,200.00 -1.60,16.80"/>
    </edge>
    <edge id="E3" from="J0" to="J1" priority="-1">
        <lane id="E3_0" index="0" speed="13.89" length="183.20" shape="-200.00,-11.20 -16.80,-11.20"/>
        <lane id="E3_1" index="1" speed="13.89" length="183.20" shape="-200.00,-8.00 -16.80,-8.00"/>
        <lane id="E3_2" index="2" speed="13.89" length="183.20" shape="-200.00,-4.80 -16.80,-4.80"/>
        <lane id="E3_3" index="3" speed="13.89" length="183.20" shape="-200.00,-1.60 -16.80,-1.60"/>
    </edge>
    <edge id="E4" from="J1" to="J2" priority="-1">
        <lane id="E4_0" index="0" speed="13.89" length="186.40" shape="13.60,-8.00 200.00,-8.00"/>
        <lane id="E4_1" index="1" speed="13.89" length="186.40" shape="13.60,-4.80 200.00,-4.80"/>
        <lane id="E4_2" index="2" speed="13.89" length="186.40" shape="13.60,-1.60 200.00,-1.60"/>
    </edge>
    <edge id="E5" from="J3" to="J1" priority="-1">
        <lane id="E5_0" index="0" speed="13.89" length="183.20" shape="8.00,-200.00 8.00,-16.80"/>
        <lane id="E5_1" index="1" speed="13.89" length="183.20" shape="4.80,-200.00 4.80,-16.80"/>
        <lane id="E5_2" index="2" speed="13.89" length="183.20" shape="1.60,-200.00 1.60,-16.80"/>
    </edge>
    <edge id="E6" from="J1" to="J4" priority="-1">
        <lane id="E6_0" index="0" speed="13.89" length="183.20" shape="4.80,16.80 4.80,200.00"/>
        <lane id="E6_1" index="1" speed="13.89" length="183.20" shape="1.60,16.80 1.60,200.00"/>
    </edge>

    <tlLogic id="J1" type="static" programID="1" offset="0">
        <phase duration="33" state="rrrrrGGGgrrrGGGg"/>
        <phase duration="3"  state="rrrrryyyyrrryyyy"/>
        <phase duration="3"  state="rrrrrrrrrrrrrrrr"/>
        <phase duration="33" state="GGGGGrrrrrrrrrrr"/>
        <phase duration="3"  state="yyyyyrrrryyyrrrr"/>
        <phase duration="6"  state="rrrrrrrrrGGGrrrr"/>
        <phase duration="3"  state="rrrrrrrrryyyrrrr"/>
    </tlLogic>

    <junction id="J0" type="dead_end" x="-200.00" y="0.00" incLanes="-E3_0 -E3_1" intLanes="" shape="-200.00,0.00 -200.00,6.40 -200.00,0.00"/>
    <junction id="J1" type="traffic_light" x="0.00" y="0.00" incLanes="-E6_0 -E6_1 -E6_2 -E6_3 -E4_0 -E4_1 -E4_2 -E4_3 E5_0 E5_1 E5_2 E3_0 E3_1 E3_2 E3_3" intLanes=":J1_0_0 :J1_1_0 :J1_1_1 :J1_3_0 :J1_3_1 :J1_5_0 :J1_6_0 :J1_6_1 :J1_8_0 :J1_9_0 :J1_10_0 :J1_11_0 :J1_12_0 :J1_13_0 :J1_13_1 :J1_15_0" shape="-12.80,16.80 6.40,16.80 7.20,14.58 8.20,13.80 9.60,13.24 11.40,12.91 13.60,12.80 13.60,-9.60 11.38,-10.40 10.60,-11.40 10.04,-12.80 9.71,-14.60 9.60,-16.80 -6.40,-16.80 -7.56,-14.58 -9.00,-13.80 -11.02,-13.24 -13.62,-12.91 -16.80,-12.80 -16.80,6.40 -14.58,7.56 -13.80,9.00 -13.24,11.02 -12.91,13.62">
        <request index="0"  response="0000000011000000" foes="0000000011000000" cont="0"/>
        <request index="1"  response="1111000111000000" foes="1111100111000000" cont="0"/>
        <request index="2"  response="1111000111000000" foes="1111100111000000" cont="0"/>
        <request index="3"  response="1110010111000000" foes="1110010111000000" cont="0"/>
        <request index="4"  response="1110010111000000" foes="1110010111000000" cont="0"/>
        <request index="5"  response="0000000000000000" foes="0000000000000000" cont="0"/>
        <request index="6"  response="0000000000000000" foes="1000110000011111" cont="0"/>
        <request index="7"  response="0000000000000000" foes="1000110000011111" cont="0"/>
        <request index="8"  response="0110000000000000" foes="0110110000011110" cont="0"/>
        <request index="9"  response="0110000000000000" foes="0110000000000000" cont="0"/>
        <request index="10" response="1110000111000000" foes="1110000111011000" cont="0"/>
        <request index="11" response="1110000111000110" foes="1110000111000110" cont="0"/>
        <request index="12" response="0000000000000000" foes="0000000000000110" cont="0"/>
        <request index="13" response="0000000000000000" foes="0000111100011110" cont="0"/>
        <request index="14" response="0000000000000000" foes="0000111100011110" cont="0"/>
        <request index="15" response="0000000011000000" foes="0000110011011110" cont="0"/>
    </junction>
    <junction id="J2" type="dead_end" x="200.00" y="0.00" incLanes="E4_0 E4_1 E4_2" intLanes="" shape="200.00,0.00 200.00,-9.60 200.00,0.00"/>
    <junction id="J3" type="dead_end" x="0.00" y="-200.00" incLanes="-E5_0 -E5_1" intLanes="" shape="0.00,-200.00 -6.40,-200.00 0.00,-200.00"/>
    <junction id="J4" type="dead_end" x="0.00" y="200.00" incLanes="E6_0 E6_1" intLanes="" shape="0.00,200.00 6.40,200.00 0.00,200.00"/>

    <connection from="-E4" to="E6" fromLane="0" toLane="0" via=":J1_5_0" tl="J1" linkIndex="5" dir="r" state="O"/>
    <connection from="-E4" to="-E3" fromLane="1" toLane="0" via=":J1_6_0" tl="J1" linkIndex="6" dir="s" state="O"/>
    <connection from="-E4" to="-E3" fromLane="2" toLane="1" via=":J1_6_1" tl="J1" linkIndex="7" dir="s" state="O"/>
    <connection from="-E4" to="-E5" fromLane="3" toLane="1" via=":J1_8_0" tl="J1" linkIndex="8" dir="l" state="o"/>
    <connection from="-E6" to="-E3" fromLane="0" toLane="0" via=":J1_0_0" tl="J1" linkIndex="0" dir="r" state="o"/>
    <connection from="-E6" to="-E5" fromLane="1" toLane="0" via=":J1_1_0" tl="J1" linkIndex="1" dir="s" state="o"/>
    <connection from="-E6" to="-E5" fromLane="1" toLane="1" via=":J1_1_1" tl="J1" linkIndex="2" dir="s" state="o"/>
    <connection from="-E6" to="E4" fromLane="2" toLane="1" via=":J1_3_0" tl="J1" linkIndex="3" dir="l" state="o"/>
    <connection from="-E6" to="E4" fromLane="3" toLane="2" via=":J1_3_1" tl="J1" linkIndex="4" dir="l" state="o"/>
    <connection from="E3" to="-E5" fromLane="0" toLane="0" via=":J1_12_0" tl="J1" linkIndex="12" dir="r" state="O"/>
    <connection from="E3" to="E4" fromLane="1" toLane="0" via=":J1_13_0" tl="J1" linkIndex="13" dir="s" state="O"/>
    <connection from="E3" to="E4" fromLane="2" toLane="1" via=":J1_13_1" tl="J1" linkIndex="14" dir="s" state="O"/>
    <connection from="E3" to="E6" fromLane="3" toLane="1" via=":J1_15_0" tl="J1" linkIndex="15" dir="l" state="o"/>
    <connection from="E5" to="E4" fromLane="0" toLane="0" via=":J1_9_0" tl="J1" linkIndex="9" dir="r" state="o"/>
    <connection from="E5" to="E6" fromLane="1" toLane="1" via=":J1_10_0" tl="J1" linkIndex="10" dir="s" state="o"/>
    <connection from="E5" to="-E3" fromLane="2" toLane="1" via=":J1_11_0" tl="J1" linkIndex="11" dir="l" state="o"/>

    <connection from=":J1_0" to="-E3" fromLane="0" toLane="0" dir="r" state="M"/>
    <connection from=":J1_1" to="-E5" fromLane="0" toLane="0" dir="s" state="M"/>
    <connection from=":J1_1" to="-E5" fromLane="1" toLane="1" dir="s" state="M"/>
    <connection from=":J1_3" to="E4" fromLane="0" toLane="1" dir="l" state="M"/>
    <connection from=":J1_3" to="E4" fromLane="1" toLane="2" dir="l" state="M"/>
    <connection from=":J1_5" to="E6" fromLane="0" toLane="0" dir="r" state="M"/>
    <connection from=":J1_6" to="-E3" fromLane="0" toLane="0" dir="s" state="M"/>
    <connection from=":J1_6" to="-E3" fromLane="1" toLane="1" dir="s" state="M"/>
    <connection from=":J1_8" to="-E5" fromLane="0" toLane="1" dir="l" state="M"/>
    <connection from=":J1_9" to="E4" fromLane="0" toLane="0" dir="r" state="M"/>
    <connection from=":J1_10" to="E6" fromLane="0" toLane="1" dir="s" state="M"/>
    <connection from=":J1_11" to="-E3" fromLane="0" toLane="1" dir="l" state="M"/>
    <connection from=":J1_12" to="-E5" fromLane="0" toLane="0" dir="r" state="M"/>
    <connection from=":J1_13" to="E4" fromLane="0" toLane="0" dir="s" state="M"/>
    <connection from=":J1_13" to="E4" fromLane="1" toLane="1" dir="s" state="M"/>
    <connection from=":J1_15" to="E6" fromLane="0" toLane="1" dir="l" state="M"/>

</net>
