[General]
cmdenv-express-mode = false
cmdenv-autoflush = false
#cmdenv-status-frequency = 1s
cmdenv-interactive = true
cmdenv-redirect-output = true
cmdenv-output-file = "simulation.log"
cmdenv-log-prefix = "[%l] [Time=%t]"
**.cmdenv-log-level = warn

image-path = ../../images

network = RSUExampleScenario

##########################################################
#            Simulation parameters                       #
##########################################################
debug-on-errors = true
print-undisposed = true

sim-time-limit = 180s

**.scalar-recording = true
**.vector-recording = true

*.playgroundSizeX = 500m
*.playgroundSizeY = 500m
*.playgroundSizeZ = 50m


##########################################################
# Annotation parameters                                  #
##########################################################
*.annotations.draw = true

##########################################################
# Obstacle parameters                                    #
##########################################################
#*.obstacles.obstacles = xmldoc("config.xml", "//AnalogueModel[@type='SimpleObstacleShadowing']/obstacles")

##########################################################
#            TraCIScenarioManager parameters             #
##########################################################
*.manager.updateInterval = 0.1s
*.manager.host = "localhost"
*.manager.port = 9999
*.manager.autoShutdown = true

##########################################################
#                       RSU SETTINGS                     #
#                                                        #
#                                                        #
##########################################################
*.rsu[0].mobility.x = 225
*.rsu[0].mobility.y = 225
*.rsu[0].mobility.z = 3

##########################################################
#            11p specific parameters                     #
#                                                        #
#                    NIC-Settings                        #
##########################################################
*.connectionManager.sendDirect = true
*.connectionManager.maxInterfDist = 2600m
*.connectionManager.drawMaxIntfDist = false

*.**.nic.mac1609_4.useServiceChannel = false
*.**.nic.mac1609_4.useAcks = true

*.**.nic.mac1609_4.txPower = 20mW
*.**.nic.mac1609_4.bitrate = 6Mbps
*.**.nic.phy80211p.minPowerLevel = -110dBm

*.**.nic.phy80211p.useNoiseFloor = true
*.**.nic.phy80211p.noiseFloor = -98dBm

*.**.nic.phy80211p.decider = xmldoc("config.xml")
*.**.nic.phy80211p.analogueModels = xmldoc("config.xml")
*.**.nic.phy80211p.usePropagationDelay = true

*.**.nic.phy80211p.antenna = xmldoc("antenna.xml", "/root/Antenna[@id='monopole']")
*.node[*].nic.phy80211p.antennaOffsetY = 0 m
*.node[*].nic.phy80211p.antennaOffsetZ = 1.895 m

##########################################################
#                      App Layer                         #
##########################################################
*.node[*].appl.rsu_x = 225
*.node[*].appl.rsu_y = 225
*.node[*].appl.rsu_address = 9
*.node[*].appl.numCpuCores = 1

##########################################################
#                      Mobility                          #
##########################################################
*.node[*].veinsmobility.x = 0
*.node[*].veinsmobility.y = 0
*.node[*].veinsmobility.z = 0
*.node[*].veinsmobility.setHostSpeed = false
*.node[*].veinsmobility.accidentCount = 0

[Config Default]
# Change this parameter to select other maps
*.manager.launchConfig = xmldoc("maps/intersection/intersection.launchd.xml")
*.rsu[*].applType = "RSUApp"
*.rsu[*].appl.numCpuCores = 1
*.node[*].applType = "CarApp"

[Config PerceptionApp_1CoreRSU]
extends = Default
*.rsu[*].applType = "RSUPerceptionApp"
*.node[*].applType = "CarPerceptionApp"

[Config PerceptionApp_2CoreRSU]
extends = PerceptionApp_1CoreRSU
*.rsu[*].appl.numCpuCores = 2

[Config PerceptionApp_3CoreRSU]
extends = PerceptionApp_1CoreRSU
*.rsu[*].appl.numCpuCores = 3

[Config PerceptionApp_4CoreRSU]
extends = PerceptionApp_1CoreRSU
*.rsu[*].appl.numCpuCores = 4

[Config AuctionApp_1CoreRSU]
extends = Default
*.rsu[*].applType = "RSUAuctionApp"
*.node[*].applType = "CarAuctionApp"

[Config AuctionApp_2CoreRSU]
extends = AuctionApp_1CoreRSU
*.rsu[*].appl.numCpuCores = 2

[Config AuctionApp_3CoreRSU]
extends = AuctionApp_1CoreRSU
*.rsu[*].appl.numCpuCores = 3

[Config AuctionApp_4CoreRSU]
extends = AuctionApp_1CoreRSU
*.rsu[*].appl.numCpuCores = 4
