<?xml version="1.0" encoding="UTF-8"?>

<!-- generated on 2024-06-01 06:40:55.865859 by osmWebWizard.py v1_18_0+0000-03ecfdea036
<configuration>
    <net-file value="/home/veins/workspace.omnetpp/veins/examples/veins/maps/beijing_200/osm.net.xml.gz"/>
    <output-trip-file value="/home/veins/workspace.omnetpp/veins/examples/veins/maps/beijing_200/osm.passenger.trips.xml"/>
    <route-file value="/home/veins/workspace.omnetpp/veins/examples/veins/maps/beijing_200/osm.passenger.rou.xml"/>
    <prefix value="veh"/>
    <trip-attributes value="departLane=&quot;best&quot;"/>
    <fringe-start-attributes value="departSpeed=&quot;max&quot;"/>
    <vehicle-class value="passenger"/>
    <lanes value="True"/>
    <fringe-factor value="5"/>
    <allow-fringe.min-length value="1000.0"/>
    <via-edge-types value="highway.motorway,highway.motorway_link,highway.trunk_link,highway.primary_link,highway.secondary_link,highway.tertiary_link"/>
    <min-distance value="300.0"/>
    <min-distance.fringe value="10.0"/>
    <remove-loops value="True"/>
    <validate value="True"/>
    <insertion-density value="200.0"/>
</configuration>
-->

<!-- generated on 2024-06-01 06:40:55 by Eclipse SUMO duarouter Version 1.18.0
<configuration xmlns:xsi="http://www.w3.org/2001/XMLSchema-instance" xsi:noNamespaceSchemaLocation="http://sumo.dlr.de/xsd/duarouterConfiguration.xsd">

    <input>
        <net-file value="/home/veins/workspace.omnetpp/veins/examples/veins/maps/beijing_200/osm.net.xml.gz"/>
        <route-files value="/home/veins/workspace.omnetpp/veins/examples/veins/maps/beijing_200/osm.passenger.trips.xml"/>
    </input>

    <output>
        <output-file value="/home/veins/workspace.omnetpp/veins/examples/veins/maps/beijing_200/osm.passenger.trips.xml.tmp"/>
        <alternatives-output value="NUL"/>
        <write-trips value="true"/>
    </output>

    <processing>
        <remove-loops value="true"/>
    </processing>

    <time>
        <begin value="0.0"/>
        <end value="3600.0"/>
    </time>

    <report>
        <no-warnings value="true"/>
        <ignore-errors value="true"/>
        <no-step-log value="true"/>
    </report>

</configuration>
-->

<routes xmlns:xsi="http://www.w3.org/2001/XMLSchema-instance" xsi:noNamespaceSchemaLocation="http://sumo.dlr.de/xsd/routes_file.xsd">
    <vType id="veh_passenger" vClass="passenger"/>
    <trip id="veh0" type="veh_passenger" depart="0.00" departLane="best" departSpeed="max" from="1061456423" to="1071049924"/>
    <trip id="veh1" type="veh_passenger" depart="1.39" departLane="best" departSpeed="max" from="175598144#0" to="30834259"/>
    <trip id="veh3" type="veh_passenger" depart="4.16" departLane="best" departSpeed="max" from="1061456423" to="1071049924"/>
    <trip id="veh4" type="veh_passenger" depart="5.55" departLane="best" departSpeed="max" from="1051962154" to="30834259"/>
    <trip id="veh5" type="veh_passenger" depart="6.94" departLane="best" departSpeed="max" from="1051962154" to="1071049924"/>
    <trip id="veh6" type="veh_passenger" depart="8.33" departLane="best" departSpeed="max" from="175598144#0" to="30834259"/>
    <trip id="veh7" type="veh_passenger" depart="9.72" departLane="best" departSpeed="max" from="1051962154" to="30834259"/>
    <trip id="veh9" type="veh_passenger" depart="12.49" departLane="best" departSpeed="max" from="225935793#0" to="30834259"/>
    <trip id="veh10" type="veh_passenger" depart="13.88" departLane="best" departSpeed="max" from="1061456423" to="1071049924"/>
    <trip id="veh11" type="veh_passenger" depart="15.27" departLane="best" departSpeed="max" from="1051962154" to="1071049924"/>
    <trip id="veh12" type="veh_passenger" depart="16.66" departLane="best" departSpeed="max" from="225935793#0" to="30834259"/>
    <trip id="veh13" type="veh_passenger" depart="18.04" departLane="best" departSpeed="max" from="225935793#0" to="30834259"/>
    <trip id="veh14" type="veh_passenger" depart="19.43" departLane="best" departSpeed="max" from="175598144#0" to="30838709"/>
    <trip id="veh15" type="veh_passenger" depart="20.82" departLane="best" departSpeed="max" from="225935793#0" to="30834259"/>
    <trip id="veh16" type="veh_passenger" depart="22.21" departLane="best" departSpeed="max" from="225935793#0" to="30834259"/>
    <trip id="veh17" type="veh_passenger" depart="23.60" departLane="best" departSpeed="max" from="1051962154" to="30042374"/>
    <trip id="veh18" type="veh_passenger" depart="24.99" departLane="best" departSpeed="max" from="1051962154" to="1071049924"/>
    <trip id="veh19" type="veh_passenger" depart="26.37" departLane="best" departSpeed="max" from="1051962154" to="30042374"/>
    <trip id="veh20" type="veh_passenger" depart="27.76" departLane="best" departSpeed="max" from="175598144#0" to="30042374"/>
    <trip id="veh21" type="veh_passenger" depart="29.15" departLane="best" departSpeed="max" from="1061456423" to="1071049924"/>
    <trip id="veh22" type="veh_passenger" depart="30.54" departLane="best" departSpeed="max" from="1061456423" to="30838709"/>
    <trip id="veh23" type="veh_passenger" depart="31.93" departLane="best" departSpeed="max" from="175598144#0" to="30834259"/>
    <trip id="veh24" type="veh_passenger" depart="33.31" departLane="best" departSpeed="max" from="1051962154" to="30834259"/>
    <trip id="veh25" type="veh_passenger" depart="34.70" departLane="best" departSpeed="max" from="1051962154" to="30042374"/>
    <trip id="veh26" type="veh_passenger" depart="36.09" departLane="best" departSpeed="max" from="225935793#0" to="30834259"/>
    <trip id="veh27" type="veh_passenger" depart="37.48" departLane="best" departSpeed="max" from="175598144#0" to="30834259"/>
    <trip id="veh29" type="veh_passenger" depart="40.25" departLane="best" departSpeed="max" from="1051962154" to="1071049924"/>
    <trip id="veh30" type="veh_passenger" depart="41.64" departLane="best" departSpeed="max" from="1061456423" to="30042374"/>
    <trip id="veh31" type="veh_passenger" depart="43.03" departLane="best" departSpeed="max" from="175598144#0" to="30042374"/>
    <trip id="veh32" type="veh_passenger" depart="44.42" departLane="best" departSpeed="max" from="1061456423" to="1071049924"/>
    <trip id="veh33" type="veh_passenger" depart="45.81" departLane="best" departSpeed="max" from="175598144#0" to="30042374"/>
    <trip id="veh34" type="veh_passenger" depart="47.19" departLane="best" departSpeed="max" from="175598144#0" to="30838709"/>
    <trip id="veh35" type="veh_passenger" depart="48.58" departLane="best" departSpeed="max" from="1061456423" to="1071049924"/>
    <trip id="veh36" type="veh_passenger" depart="49.97" departLane="best" departSpeed="max" from="225935793#0" to="30834259"/>
    <trip id="veh37" type="veh_passenger" depart="51.36" departLane="best" departSpeed="max" from="1051962154" to="1071049924"/>
    <trip id="veh38" type="veh_passenger" depart="52.75" departLane="best" departSpeed="max" from="1051962154" to="30834259"/>
    <trip id="veh39" type="veh_passenger" depart="54.13" departLane="best" departSpeed="max" from="1051962154" to="30042374"/>
    <trip id="veh40" type="veh_passenger" depart="55.52" departLane="best" departSpeed="max" from="225935793#0" to="30834259"/>
    <trip id="veh42" type="veh_passenger" depart="58.30" departLane="best" departSpeed="max" from="1051962154" to="30834259"/>
    <trip id="veh43" type="veh_passenger" depart="59.69" departLane="best" departSpeed="max" from="175598144#0" to="30834259"/>
    <trip id="veh44" type="veh_passenger" depart="61.08" departLane="best" departSpeed="max" from="1051962154" to="30042374"/>
    <trip id="veh45" type="veh_passenger" depart="62.46" departLane="best" departSpeed="max" from="1061456423" to="30838709"/>
    <trip id="veh47" type="veh_passenger" depart="65.24" departLane="best" departSpeed="max" from="225935793#0" to="30834259"/>
    <trip id="veh48" type="veh_passenger" depart="66.63" departLane="best" departSpeed="max" from="225935793#0" to="30834259"/>
    <trip id="veh49" type="veh_passenger" depart="68.02" departLane="best" departSpeed="max" from="1051962154" to="30042374"/>
    <trip id="veh51" type="veh_passenger" depart="70.79" departLane="best" departSpeed="max" from="1061456423" to="1071049924"/>
    <trip id="veh53" type="veh_passenger" depart="73.57" departLane="best" departSpeed="max" from="1051962154" to="30042374"/>
    <trip id="veh55" type="veh_passenger" depart="76.34" departLane="best" departSpeed="max" from="1061456423" to="30838709"/>
    <trip id="veh56" type="veh_passenger" depart="77.73" departLane="best" departSpeed="max" from="1061456423" to="1071049924"/>
    <trip id="veh57" type="veh_passenger" depart="79.12" departLane="best" departSpeed="max" from="175598144#0" to="30834259"/>
    <trip id="veh58" type="veh_passenger" depart="80.51" departLane="best" departSpeed="max" from="1051962154" to="30042374"/>
    <trip id="veh59" type="veh_passenger" depart="81.90" departLane="best" departSpeed="max" from="225935793#0" to="30834259"/>
    <trip id="veh60" type="veh_passenger" depart="83.28" departLane="best" departSpeed="max" from="1051962154" to="1071049924"/>
    <trip id="veh61" type="veh_passenger" depart="84.67" departLane="best" departSpeed="max" from="1051962154" to="1071049924"/>
    <trip id="veh62" type="veh_passenger" depart="86.06" departLane="best" departSpeed="max" from="1051962154" to="30834259"/>
    <trip id="veh64" type="veh_passenger" depart="88.84" departLane="best" departSpeed="max" from="1051962154" to="30834259"/>
    <trip id="veh65" type="veh_passenger" depart="90.22" departLane="best" departSpeed="max" from="1051962154" to="1071049924"/>
    <trip id="veh66" type="veh_passenger" depart="91.61" departLane="best" departSpeed="max" from="225935793#0" to="30834259"/>
    <trip id="veh67" type="veh_passenger" depart="93.00" departLane="best" departSpeed="max" from="1061456423" to="30838709"/>
    <trip id="veh69" type="veh_passenger" depart="95.78" departLane="best" departSpeed="max" from="1051962154" to="30042374"/>
    <trip id="veh70" type="veh_passenger" depart="97.16" departLane="best" departSpeed="max" from="1061456423" to="30042374"/>
    <trip id="veh71" type="veh_passenger" depart="98.55" departLane="best" departSpeed="max" from="175598144#0" to="30834259"/>
    <trip id="veh73" type="veh_passenger" depart="101.33" departLane="best" departSpeed="max" from="1061456423" to="30042374"/>
    <trip id="veh75" type="veh_passenger" depart="104.11" departLane="best" departSpeed="max" from="1051962154" to="30042374"/>
    <trip id="veh76" type="veh_passenger" depart="105.49" departLane="best" departSpeed="max" from="1061456423" to="30042374"/>
    <trip id="veh77" type="veh_passenger" depart="106.88" departLane="best" departSpeed="max" from="1061456423" to="30838709"/>
    <trip id="veh81" type="veh_passenger" depart="112.43" departLane="best" departSpeed="max" from="1061456423" to="1071049924"/>
    <trip id="veh82" type="veh_passenger" depart="113.82" departLane="best" departSpeed="max" from="1061456423" to="1071049924"/>
    <trip id="veh83" type="veh_passenger" depart="115.21" departLane="best" departSpeed="max" from="1061456423" to="30838709"/>
    <trip id="veh84" type="veh_passenger" depart="116.60" departLane="best" departSpeed="max" from="1061456423" to="30838709"/>
    <trip id="veh85" type="veh_passenger" depart="117.99" departLane="best" departSpeed="max" from="1061456423" to="30042374"/>
    <trip id="veh87" type="veh_passenger" depart="120.76" departLane="best" departSpeed="max" from="175598144#0" to="30834259"/>
    <trip id="veh88" type="veh_passenger" depart="122.15" departLane="best" departSpeed="max" from="1051962154" to="30042374"/>
    <trip id="veh89" type="veh_passenger" depart="123.54" departLane="best" departSpeed="max" from="225935793#0" to="30834259"/>
    <trip id="veh90" type="veh_passenger" depart="124.93" departLane="best" departSpeed="max" from="175598144#0" to="30834259"/>
    <trip id="veh91" type="veh_passenger" depart="126.31" departLane="best" departSpeed="max" from="1051962154" to="30834259"/>
    <trip id="veh92" type="veh_passenger" depart="127.70" departLane="best" departSpeed="max" from="175598144#0" to="30838709"/>
    <trip id="veh93" type="veh_passenger" depart="129.09" departLane="best" departSpeed="max" from="1051962154" to="1071049924"/>
    <trip id="veh94" type="veh_passenger" depart="130.48" departLane="best" departSpeed="max" from="175598144#0" to="30834259"/>
    <trip id="veh95" type="veh_passenger" depart="131.87" departLane="best" departSpeed="max" from="1051962154" to="1071049924"/>
    <trip id="veh97" type="veh_passenger" depart="134.64" departLane="best" departSpeed="max" from="175598144#0" to="30834259"/>
    <trip id="veh98" type="veh_passenger" depart="136.03" departLane="best" departSpeed="max" from="175598144#0" to="30838709"/>
    <trip id="veh99" type="veh_passenger" depart="137.42" departLane="best" departSpeed="max" from="1051962154" to="30834259"/>
    <trip id="veh100" type="veh_passenger" depart="138.81" departLane="best" departSpeed="max" from="1051962154" to="30042374"/>
    <trip id="veh101" type="veh_passenger" depart="140.19" departLane="best" departSpeed="max" from="175598144#0" to="30042374"/>
    <trip id="veh102" type="veh_passenger" depart="141.58" departLane="best" departSpeed="max" from="1061456423" to="30838709"/>
    <trip id="veh103" type="veh_passenger" depart="142.97" departLane="best" departSpeed="max" from="1051962154" to="30042374"/>
    <trip id="veh105" type="veh_passenger" depart="145.75" departLane="best" departSpeed="max" from="1051962154" to="1071049924"/>
    <trip id="veh106" type="veh_passenger" depart="147.14" departLane="best" departSpeed="max" from="1061456423" to="30838709"/>
    <trip id="veh108" type="veh_passenger" depart="149.91" departLane="best" departSpeed="max" from="1061456423" to="1071049924"/>
    <trip id="veh109" type="veh_passenger" depart="151.30" departLane="best" departSpeed="max" from="225935793#0" to="30834259"/>
    <trip id="veh110" type="veh_passenger" depart="152.69" departLane="best" departSpeed="max" from="175598144#0" to="30838709"/>
    <trip id="veh111" type="veh_passenger" depart="154.08" departLane="best" departSpeed="max" from="175598144#0" to="30838709"/>
    <trip id="veh112" type="veh_passenger" depart="155.46" departLane="best" departSpeed="max" from="1051962154" to="1071049924"/>
    <trip id="veh113" type="veh_passenger" depart="156.85" departLane="best" departSpeed="max" from="1051962154" to="30834259"/>
    <trip id="veh114" type="veh_passenger" depart="158.24" departLane="best" departSpeed="max" from="175598144#0" to="30042374"/>
    <trip id="veh115" type="veh_passenger" depart="159.63" departLane="best" departSpeed="max" from="1061456423" to="30838709"/>
    <trip id="veh117" type="veh_passenger" depart="162.40" departLane="best" departSpeed="max" from="1061456423" to="30042374"/>
    <trip id="veh118" type="veh_passenger" depart="163.79" departLane="best" departSpeed="max" from="175598144#0" to="30042374"/>
    <trip id="veh119" type="veh_passenger" depart="165.18" departLane="best" departSpeed="max" from="175598144#0" to="30834259"/>
    <trip id="veh120" type="veh_passenger" depart="166.57" departLane="best" departSpeed="max" from="1061456423" to="1071049924"/>
    <trip id="veh121" type="veh_passenger" depart="167.96" departLane="best" departSpeed="max" from="225935793#0" to="30834259"/>
    <trip id="veh122" type="veh_passenger" depart="169.34" departLane="best" departSpeed="max" from="225935793#0" to="30834259"/>
    <trip id="veh123" type="veh_passenger" depart="170.73" departLane="best" departSpeed="max" from="1051962154" to="1071049924"/>
    <trip id="veh124" type="veh_passenger" depart="172.12" departLane="best" departSpeed="max" from="1061456423" to="30838709"/>
    <trip id="veh127" type="veh_passenger" depart="176.28" departLane="best" departSpeed="max" from="1051962154" to="1071049924"/>
    <trip id="veh131" type="veh_passenger" depart="181.84" departLane="best" departSpeed="max" from="1051962154" to="30834259"/>
    <trip id="veh132" type="veh_passenger" depart="183.23" departLane="best" departSpeed="max" from="1061456423" to="30838709"/>
    <trip id="veh136" type="veh_passenger" depart="188.78" departLane="best" departSpeed="max" from="1061456423" to="30042374"/>
    <trip id="veh138" type="veh_passenger" depart="191.55" departLane="best" departSpeed="max" from="1051962154" to="1071049924"/>
    <trip id="veh139" type="veh_passenger" depart="192.94" departLane="best" departSpeed="max" from="1061456423" to="30838709"/>
    <trip id="veh140" type="veh_passenger" depart="194.33" departLane="best" departSpeed="max" from="175598144#0" to="30042374"/>
    <trip id="veh141" type="veh_passenger" depart="195.72" departLane="best" departSpeed="max" from="225935793#0" to="30834259"/>
    <trip id="veh144" type="veh_passenger" depart="199.88" departLane="best" departSpeed="max" from="1051962154" to="30042374"/>
    <trip id="veh145" type="veh_passenger" depart="201.27" departLane="best" departSpeed="max" from="175598144#0" to="30042374"/>
    <trip id="veh146" type="veh_passenger" depart="202.66" departLane="best" departSpeed="max" from="175598144#0" to="30834259"/>
    <trip id="veh147" type="veh_passenger" depart="204.05" departLane="best" departSpeed="max" from="175598144#0" to="30834259"/>
    <trip id="veh148" type="veh_passenger" depart="205.43" departLane="best" departSpeed="max" from="175598144#0" to="30834259"/>
    <trip id="veh149" type="veh_passenger" depart="206.82" departLane="best" departSpeed="max" from="1061456423" to="1071049924"/>
    <trip id="veh150" type="veh_passenger" depart="208.21" departLane="best" departSpeed="max" from="175598144#0" to="30042374"/>
    <trip id="veh151" type="veh_passenger" depart="209.60" departLane="best" departSpeed="max" from="1061456423" to="30838709"/>
    <trip id="veh152" type="veh_passenger" depart="210.99" departLane="best" departSpeed="max" from="175598144#0" to="30042374"/>
    <trip id="veh153" type="veh_passenger" depart="212.37" departLane="best" departSpeed="max" from="1061456423" to="30042374"/>
    <trip id="veh154" type="veh_passenger" depart="213.76" departLane="best" departSpeed="max" from="1061456423" to="30042374"/>
    <trip id="veh155" type="veh_passenger" depart="215.15" departLane="best" departSpeed="max" from="1051962154" to="30042374"/>
    <trip id="veh156" type="veh_passenger" depart="216.54" departLane="best" departSpeed="max" from="225935793#0" to="30834259"/>
    <trip id="veh157" type="veh_passenger" depart="217.93" departLane="best" departSpeed="max" from="225935793#0" to="30834259"/>
    <trip id="veh158" type="veh_passenger" depart="219.31" departLane="best" departSpeed="max" from="1051962154" to="30042374"/>
    <trip id="veh159" type="veh_passenger" depart="220.70" departLane="best" departSpeed="max" from="175598144#0" to="30042374"/>
    <trip id="veh160" type="veh_passenger" depart="222.09" departLane="best" departSpeed="max" from="1061456423" to="1071049924"/>
    <trip id="veh161" type="veh_passenger" depart="223.48" departLane="best" departSpeed="max" from="1061456423" to="30838709"/>
    <trip id="veh163" type="veh_passenger" depart="226.26" departLane="best" departSpeed="max" from="1051962154" to="30834259"/>
    <trip id="veh164" type="veh_passenger" depart="227.64" departLane="best" departSpeed="max" from="175598144#0" to="30042374"/>
    <trip id="veh166" type="veh_passenger" depart="230.42" departLane="best" departSpeed="max" from="1051962154" to="1071049924"/>
    <trip id="veh167" type="veh_passenger" depart="231.81" departLane="best" departSpeed="max" from="1051962154" to="30042374"/>
    <trip id="veh169" type="veh_passenger" depart="234.58" departLane="best" departSpeed="max" from="1051962154" to="30834259"/>
    <trip id="veh170" type="veh_passenger" depart="235.97" departLane="best" departSpeed="max" from="1061456423" to="1071049924"/>
    <trip id="veh172" type="veh_passenger" depart="238.75" departLane="best" departSpeed="max" from="1051962154" to="30042374"/>
    <trip id="veh173" type="veh_passenger" depart="240.14" departLane="best" departSpeed="max" from="1061456423" to="30838709"/>
    <trip id="veh174" type="veh_passenger" depart="241.52" departLane="best" departSpeed="max" from="175598144#0" to="30838709"/>
    <trip id="veh175" type="veh_passenger" depart="242.91" departLane="best" departSpeed="max" from="175598144#0" to="30838709"/>
    <trip id="veh176" type="veh_passenger" depart="244.30" departLane="best" departSpeed="max" from="225935793#0" to="30834259"/>
    <trip id="veh177" type="veh_passenger" depart="245.69" departLane="best" departSpeed="max" from="175598144#0" to="30834259"/>
    <trip id="veh178" type="veh_passenger" depart="247.08" departLane="best" departSpeed="max" from="225935793#0" to="30834259"/>
    <trip id="veh179" type="veh_passenger" depart="248.46" departLane="best" departSpeed="max" from="225935793#0" to="30834259"/>
    <trip id="veh180" type="veh_passenger" depart="249.85" departLane="best" departSpeed="max" from="1061456423" to="30042374"/>
    <trip id="veh181" type="veh_passenger" depart="251.24" departLane="best" departSpeed="max" from="1051962154" to="30834259"/>
    <trip id="veh182" type="veh_passenger" depart="252.63" departLane="best" departSpeed="max" from="225935793#0" to="30834259"/>
    <trip id="veh183" type="veh_passenger" depart="254.02" departLane="best" departSpeed="max" from="175598144#0" to="30042374"/>
    <trip id="veh184" type="veh_passenger" depart="255.40" departLane="best" departSpeed="max" from="1051962154" to="30042374"/>
    <trip id="veh185" type="veh_passenger" depart="256.79" departLane="best" departSpeed="max" from="1061456423" to="30042374"/>
    <trip id="veh186" type="veh_passenger" depart="258.18" departLane="best" departSpeed="max" from="1051962154" to="30834259"/>
    <trip id="veh187" type="veh_passenger" depart="259.57" departLane="best" departSpeed="max" from="1061456423" to="1071049924"/>
    <trip id="veh188" type="veh_passenger" depart="260.96" departLane="best" departSpeed="max" from="1061456423" to="30838709"/>
    <trip id="veh189" type="veh_passenger" depart="262.34" departLane="best" departSpeed="max" from="175598144#0" to="30834259"/>
    <trip id="veh191" type="veh_passenger" depart="265.12" departLane="best" departSpeed="max" from="1061456423" to="1071049924"/>
    <trip id="veh192" type="veh_passenger" depart="266.51" departLane="best" departSpeed="max" from="1061456423" to="30838709"/>
    <trip id="veh194" type="veh_passenger" depart="269.29" departLane="best" departSpeed="max" from="175598144#0" to="30834259"/>
    <trip id="veh195" type="veh_passenger" depart="270.67" departLane="best" departSpeed="max" from="1051962154" to="1071049924"/>
    <trip id="veh196" type="veh_passenger" depart="272.06" departLane="best" departSpeed="max" from="1061456423" to="1071049924"/>
    <trip id="veh197" type="veh_passenger" depart="273.45" departLane="best" departSpeed="max" from="1061456423" to="1071049924"/>
    <trip id="veh198" type="veh_passenger" depart="274.84" departLane="best" departSpeed="max" from="1061456423" to="1071049924"/>
    <trip id="veh199" type="veh_passenger" depart="276.23" departLane="best" departSpeed="max" from="1051962154" to="30834259"/>
    <trip id="veh200" type="veh_passenger" depart="277.61" departLane="best" departSpeed="max" from="1051962154" to="30042374"/>
    <trip id="veh201" type="veh_passenger" depart="279.00" departLane="best" departSpeed="max" from="1051962154" to="30042374"/>
    <trip id="veh202" type="veh_passenger" depart="280.39" departLane="best" departSpeed="max" from="1051962154" to="30042374"/>
    <trip id="veh204" type="veh_passenger" depart="283.17" departLane="best" departSpeed="max" from="1061456423" to="1071049924"/>
    <trip id="veh205" type="veh_passenger" depart="284.55" departLane="best" departSpeed="max" from="1051962154" to="30834259"/>
    <trip id="veh206" type="veh_passenger" depart="285.94" departLane="best" departSpeed="max" from="175598144#0" to="30838709"/>
    <trip id="veh207" type="veh_passenger" depart="287.33" departLane="best" departSpeed="max" from="175598144#0" to="30838709"/>
    <trip id="veh209" type="veh_passenger" depart="290.11" departLane="best" departSpeed="max" from="1051962154" to="1071049924"/>
    <trip id="veh210" type="veh_passenger" depart="291.49" departLane="best" departSpeed="max" from="1051962154" to="30834259"/>
    <trip id="veh211" type="veh_passenger" depart="292.88" departLane="best" departSpeed="max" from="175598144#0" to="30838709"/>
    <trip id="veh212" type="veh_passenger" depart="294.27" departLane="best" departSpeed="max" from="1051962154" to="30834259"/>
    <trip id="veh214" type="veh_passenger" depart="297.05" departLane="best" departSpeed="max" from="1051962154" to="1071049924"/>
    <trip id="veh215" type="veh_passenger" depart="298.43" departLane="best" departSpeed="max" from="175598144#0" to="30834259"/>
    <trip id="veh216" type="veh_passenger" depart="299.82" departLane="best" departSpeed="max" from="225935793#0" to="30834259"/>
    <trip id="veh217" type="veh_passenger" depart="301.21" departLane="best" departSpeed="max" from="1061456423" to="30042374"/>
    <trip id="veh218" type="veh_passenger" depart="302.60" departLane="best" departSpeed="max" from="175598144#0" to="30042374"/>
    <trip id="veh220" type="veh_passenger" depart="305.38" departLane="best" departSpeed="max" from="175598144#0" to="30838709"/>
    <trip id="veh221" type="veh_passenger" depart="306.76" departLane="best" departSpeed="max" from="175598144#0" to="30042374"/>
    <trip id="veh222" type="veh_passenger" depart="308.15" departLane="best" departSpeed="max" from="175598144#0" to="30838709"/>
    <trip id="veh223" type="veh_passenger" depart="309.54" departLane="best" departSpeed="max" from="1061456423" to="30838709"/>
    <trip id="veh224" type="veh_passenger" depart="310.93" departLane="best" departSpeed="max" from="175598144#0" to="30042374"/>
    <trip id="veh225" type="veh_passenger" depart="312.32" departLane="best" departSpeed="max" from="1061456423" to="30838709"/>
    <trip id="veh228" type="veh_passenger" depart="316.48" departLane="best" departSpeed="max" from="1061456423" to="1071049924"/>
    <trip id="veh230" type="veh_passenger" depart="319.26" departLane="best" departSpeed="max" from="1061456423" to="30838709"/>
    <trip id="veh231" type="veh_passenger" depart="320.64" departLane="best" departSpeed="max" from="175598144#0" to="30042374"/>
    <trip id="veh232" type="veh_passenger" depart="322.03" departLane="best" departSpeed="max" from="1051962154" to="30834259"/>
    <trip id="veh233" type="veh_passenger" depart="323.42" departLane="best" departSpeed="max" from="1061456423" to="30838709"/>
    <trip id="veh234" type="veh_passenger" depart="324.81" departLane="best" departSpeed="max" from="175598144#0" to="30834259"/>
    <trip id="veh235" type="veh_passenger" depart="326.20" departLane="best" departSpeed="max" from="1061456423" to="30838709"/>
    <trip id="veh236" type="veh_passenger" depart="327.58" departLane="best" departSpeed="max" from="1051962154" to="1071049924"/>
    <trip id="veh237" type="veh_passenger" depart="328.97" departLane="best" departSpeed="max" from="175598144#0" to="30042374"/>
    <trip id="veh238" type="veh_passenger" depart="330.36" departLane="best" departSpeed="max" from="175598144#0" to="30042374"/>
    <trip id="veh239" type="veh_passenger" depart="331.75" departLane="best" departSpeed="max" from="175598144#0" to="30042374"/>
    <trip id="veh240" type="veh_passenger" depart="333.14" departLane="best" departSpeed="max" from="175598144#0" to="30042374"/>
    <trip id="veh241" type="veh_passenger" depart="334.52" departLane="best" departSpeed="max" from="175598144#0" to="30042374"/>
    <trip id="veh242" type="veh_passenger" depart="335.91" departLane="best" departSpeed="max" from="1061456423" to="1071049924"/>
    <trip id="veh243" type="veh_passenger" depart="337.30" departLane="best" departSpeed="max" from="1051962154" to="1071049924"/>
    <trip id="veh244" type="veh_passenger" depart="338.69" departLane="best" departSpeed="max" from="175598144#0" to="30838709"/>
    <trip id="veh245" type="veh_passenger" depart="340.08" departLane="best" departSpeed="max" from="1051962154" to="1071049924"/>
    <trip id="veh246" type="veh_passenger" depart="341.46" departLane="best" departSpeed="max" from="225935793#0" to="30834259"/>
    <trip id="veh247" type="veh_passenger" depart="342.85" departLane="best" departSpeed="max" from="1061456423" to="1071049924"/>
    <trip id="veh248" type="veh_passenger" depart="344.24" departLane="best" departSpeed="max" from="1051962154" to="1071049924"/>
    <trip id="veh249" type="veh_passenger" depart="345.63" departLane="best" departSpeed="max" from="1051962154" to="1071049924"/>
    <trip id="veh250" type="veh_passenger" depart="347.02" departLane="best" departSpeed="max" from="175598144#0" to="30042374"/>
    <trip id="veh251" type="veh_passenger" depart="348.41" departLane="best" departSpeed="max" from="225935793#0" to="30834259"/>
    <trip id="veh252" type="veh_passenger" depart="349.79" departLane="best" departSpeed="max" from="225935793#0" to="30834259"/>
    <trip id="veh253" type="veh_passenger" depart="351.18" departLane="best" departSpeed="max" from="1061456423" to="30042374"/>
    <trip id="veh254" type="veh_passenger" depart="352.57" departLane="best" departSpeed="max" from="1051962154" to="1071049924"/>
    <trip id="veh255" type="veh_passenger" depart="353.96" departLane="best" departSpeed="max" from="1051962154" to="30834259"/>
    <trip id="veh256" type="veh_passenger" depart="355.35" departLane="best" departSpeed="max" from="1051962154" to="1071049924"/>
    <trip id="veh257" type="veh_passenger" depart="356.73" departLane="best" departSpeed="max" from="175598144#0" to="30042374"/>