<?xml version="1.0" encoding="UTF-8"?>

<!-- generated on 2024-06-01 06:43:25.931711 by osmWebWizard.py v1_18_0+0000-03ecfdea036
<configuration>
    <net-file value="/home/veins/workspace.omnetpp/veins/examples/veins/maps/beijing_1500/osm.net.xml.gz"/>
    <output-trip-file value="/home/veins/workspace.omnetpp/veins/examples/veins/maps/beijing_1500/osm.passenger.trips.xml"/>
    <route-file value="/home/veins/workspace.omnetpp/veins/examples/veins/maps/beijing_1500/osm.passenger.rou.xml"/>
    <prefix value="veh"/>
    <trip-attributes value="departLane=&quot;best&quot;"/>
    <fringe-start-attributes value="departSpeed=&quot;max&quot;"/>
    <vehicle-class value="passenger"/>
    <lanes value="True"/>
    <fringe-factor value="5"/>
    <allow-fringe.min-length value="1000.0"/>
    <via-edge-types value="highway.motorway,highway.motorway_link,highway.trunk_link,highway.primary_link,highway.secondary_link,highway.tertiary_link"/>
    <min-distance value="300.0"/>
    <min-distance.fringe value="10.0"/>
    <remove-loops value="True"/>
    <validate value="True"/>
    <insertion-density value="1500.0"/>
</configuration>
-->

<!-- generated on 2024-06-01 06:43:25 by Eclipse SUMO duarouter Version 1.18.0
<configuration xmlns:xsi="http://www.w3.org/2001/XMLSchema-instance" xsi:noNamespaceSchemaLocation="http://sumo.dlr.de/xsd/duarouterConfiguration.xsd">

    <input>
        <net-file value="/home/veins/workspace.omnetpp/veins/examples/veins/maps/beijing_1500/osm.net.xml.gz"/>
        <route-files value="//home/veins/workspace.omnetpp/veins/examples/veins/maps/beijing_1500/osm.passenger.trips.xml"/>
    </input>

    <output>
        <output-file value="/home/veins/workspace.omnetpp/veins/examples/veins/maps/beijing_1500/osm.passenger.trips.xml.tmp"/>
        <alternatives-output value="NUL"/>
        <write-trips value="true"/>
    </output>

    <processing>
        <remove-loops value="true"/>
    </processing>

    <time>
        <begin value="0.0"/>
        <end value="3600.0"/>
    </time>

    <report>
        <no-warnings value="true"/>
        <ignore-errors value="true"/>
        <no-step-log value="true"/>
    </report>

</configuration>
-->

<routes xmlns:xsi="http://www.w3.org/2001/XMLSchema-instance" xsi:noNamespaceSchemaLocation="http://sumo.dlr.de/xsd/routes_file.xsd">
    <vType id="veh_passenger" vClass="passenger"/>
    <trip id="veh0" type="veh_passenger" depart="0.00" departLane="best" departSpeed="max" from="1061456423" to="1071049924"/>
    <trip id="veh1" type="veh_passenger" depart="0.19" departLane="best" departSpeed="max" from="175598144#0" to="30834259"/>
    <trip id="veh3" type="veh_passenger" depart="0.56" departLane="best" departSpeed="max" from="1061456423" to="1071049924"/>
    <trip id="veh4" type="veh_passenger" depart="0.74" departLane="best" departSpeed="max" from="1051962154" to="30834259"/>
    <trip id="veh5" type="veh_passenger" depart="0.93" departLane="best" departSpeed="max" from="1051962154" to="1071049924"/>
    <trip id="veh6" type="veh_passenger" depart="1.11" departLane="best" departSpeed="max" from="175598144#0" to="30834259"/>
    <trip id="veh7" type="veh_passenger" depart="1.30" departLane="best" departSpeed="max" from="1051962154" to="30834259"/>
    <trip id="veh9" type="veh_passenger" depart="1.67" departLane="best" departSpeed="max" from="225935793#0" to="30834259"/>
    <trip id="veh10" type="veh_passenger" depart="1.85" departLane="best" departSpeed="max" from="1061456423" to="1071049924"/>
    <trip id="veh11" type="veh_passenger" depart="2.04" departLane="best" departSpeed="max" from="1051962154" to="1071049924"/>
    <trip id="veh12" type="veh_passenger" depart="2.22" departLane="best" departSpeed="max" from="225935793#0" to="30834259"/>
    <trip id="veh13" type="veh_passenger" depart="2.41" departLane="best" departSpeed="max" from="225935793#0" to="30834259"/>
    <trip id="veh14" type="veh_passenger" depart="2.59" departLane="best" departSpeed="max" from="175598144#0" to="30838709"/>
    <trip id="veh15" type="veh_passenger" depart="2.78" departLane="best" departSpeed="max" from="225935793#0" to="30834259"/>
    <trip id="veh16" type="veh_passenger" depart="2.96" departLane="best" departSpeed="max" from="225935793#0" to="30834259"/>
    <trip id="veh17" type="veh_passenger" depart="3.15" departLane="best" departSpeed="max" from="1051962154" to="30042374"/>
    <trip id="veh18" type="veh_passenger" depart="3.33" departLane="best" departSpeed="max" from="1051962154" to="1071049924"/>
    <trip id="veh19" type="veh_passenger" depart="3.52" departLane="best" departSpeed="max" from="1051962154" to="30042374"/>
    <trip id="veh20" type="veh_passenger" depart="3.70" departLane="best" departSpeed="max" from="175598144#0" to="30042374"/>
    <trip id="veh21" type="veh_passenger" depart="3.89" departLane="best" departSpeed="max" from="1061456423" to="1071049924"/>
    <trip id="veh22" type="veh_passenger" depart="4.07" departLane="best" departSpeed="max" from="1061456423" to="30838709"/>
    <trip id="veh23" type="veh_passenger" depart="4.26" departLane="best" departSpeed="max" from="175598144#0" to="30834259"/>
    <trip id="veh24" type="veh_passenger" depart="4.44" departLane="best" departSpeed="max" from="1051962154" to="30834259"/>
    <trip id="veh25" type="veh_passenger" depart="4.63" departLane="best" departSpeed="max" from="1051962154" to="30042374"/>
    <trip id="veh26" type="veh_passenger" depart="4.81" departLane="best" departSpeed="max" from="225935793#0" to="30834259"/>
    <trip id="veh27" type="veh_passenger" depart="5.00" departLane="best" departSpeed="max" from="175598144#0" to="30834259"/>
    <trip id="veh29" type="veh_passenger" depart="5.37" departLane="best" departSpeed="max" from="1051962154" to="1071049924"/>
    <trip id="veh30" type="veh_passenger" depart="5.55" departLane="best" departSpeed="max" from="1061456423" to="30042374"/>
    <trip id="veh31" type="veh_passenger" depart="5.74" departLane="best" departSpeed="max" from="175598144#0" to="30042374"/>
    <trip id="veh32" type="veh_passenger" depart="5.92" departLane="best" departSpeed="max" from="1061456423" to="1071049924"/>
    <trip id="veh33" type="veh_passenger" depart="6.11" departLane="best" departSpeed="max" from="175598144#0" to="30042374"/>
    <trip id="veh34" type="veh_passenger" depart="6.29" departLane="best" departSpeed="max" from="175598144#0" to="30838709"/>
    <trip id="veh35" type="veh_passenger" depart="6.48" departLane="best" departSpeed="max" from="1061456423" to="1071049924"/>
    <trip id="veh36" type="veh_passenger" depart="6.66" departLane="best" departSpeed="max" from="225935793#0" to="30834259"/>
    <trip id="veh37" type="veh_passenger" depart="6.85" departLane="best" departSpeed="max" from="1051962154" to="1071049924"/>
    <trip id="veh38" type="veh_passenger" depart="7.03" departLane="best" departSpeed="max" from="1051962154" to="30834259"/>
    <trip id="veh39" type="veh_passenger" depart="7.22" departLane="best" departSpeed="max" from="1051962154" to="30042374"/>
    <trip id="veh40" type="veh_passenger" depart="7.40" departLane="best" departSpeed="max" from="225935793#0" to="30834259"/>
    <trip id="veh42" type="veh_passenger" depart="7.77" departLane="best" departSpeed="max" from="1051962154" to="30834259"/>
    <trip id="veh43" type="veh_passenger" depart="7.96" departLane="best" departSpeed="max" from="175598144#0" to="30834259"/>
    <trip id="veh44" type="veh_passenger" depart="8.14" departLane="best" departSpeed="max" from="1051962154" to="30042374"/>
    <trip id="veh45" type="veh_passenger" depart="8.33" departLane="best" departSpeed="max" from="1061456423" to="30838709"/>
    <trip id="veh47" type="veh_passenger" depart="8.70" departLane="best" departSpeed="max" from="225935793#0" to="30834259"/>
    <trip id="veh48" type="veh_passenger" depart="8.88" departLane="best" departSpeed="max" from="225935793#0" to="30834259"/>
    <trip id="veh49" type="veh_passenger" depart="9.07" departLane="best" departSpeed="max" from="1051962154" to="30042374"/>
    <trip id="veh51" type="veh_passenger" depart="9.44" departLane="best" departSpeed="max" from="1061456423" to="1071049924"/>
    <trip id="veh53" type="veh_passenger" depart="9.81" departLane="best" departSpeed="max" from="1051962154" to="30042374"/>
    <trip id="veh55" type="veh_passenger" depart="10.18" departLane="best" departSpeed="max" from="1061456423" to="30838709"/>
    <trip id="veh56" type="veh_passenger" depart="10.36" departLane="best" departSpeed="max" from="1061456423" to="1071049924"/>
    <trip id="veh57" type="veh_passenger" depart="10.55" departLane="best" departSpeed="max" from="175598144#0" to="30834259"/>
    <trip id="veh58" type="veh_passenger" depart="10.73" departLane="best" departSpeed="max" from="1051962154" to="30042374"/>
    <trip id="veh59" type="veh_passenger" depart="10.92" departLane="best" departSpeed="max" from="225935793#0" to="30834259"/>
    <trip id="veh60" type="veh_passenger" depart="11.10" departLane="best" departSpeed="max" from="1051962154" to="1071049924"/>
    <trip id="veh61" type="veh_passenger" depart="11.29" departLane="best" departSpeed="max" from="1051962154" to="1071049924"/>
    <trip id="veh62" type="veh_passenger" depart="11.47" departLane="best" departSpeed="max" from="1051962154" to="30834259"/>
    <trip id="veh64" type="veh_passenger" depart="11.84" departLane="best" departSpeed="max" from="1051962154" to="30834259"/>
    <trip id="veh65" type="veh_passenger" depart="12.03" departLane="best" departSpeed="max" from="1051962154" to="1071049924"/>
    <trip id="veh66" type="veh_passenger" depart="12.22" departLane="best" departSpeed="max" from="225935793#0" to="30834259"/>
    <trip id="veh67" type="veh_passenger" depart="12.40" departLane="best" departSpeed="max" from="1061456423" to="30838709"/>
    <trip id="veh69" type="veh_passenger" depart="12.77" departLane="best" departSpeed="max" from="1051962154" to="30042374"/>
    <trip id="veh70" type="veh_passenger" depart="12.96" departLane="best" departSpeed="max" from="1061456423" to="30042374"/>
    <trip id="veh71" type="veh_passenger" depart="13.14" departLane="best" departSpeed="max" from="175598144#0" to="30834259"/>
    <trip id="veh73" type="veh_passenger" depart="13.51" departLane="best" departSpeed="max" from="1061456423" to="30042374"/>
    <trip id="veh75" type="veh_passenger" depart="13.88" departLane="best" departSpeed="max" from="1051962154" to="30042374"/>
    <trip id="veh76" type="veh_passenger" depart="14.07" departLane="best" departSpeed="max" from="1061456423" to="30042374"/>
    <trip id="veh77" type="veh_passenger" depart="14.25" departLane="best" departSpeed="max" from="1061456423" to="30838709"/>
    <trip id="veh81" type="veh_passenger" depart="14.99" departLane="best" departSpeed="max" from="1061456423" to="1071049924"/>
    <trip id="veh82" type="veh_passenger" depart="15.18" departLane="best" departSpeed="max" from="1061456423" to="1071049924"/>
    <trip id="veh83" type="veh_passenger" depart="15.36" departLane="best" departSpeed="max" from="1061456423" to="30838709"/>
    <trip id="veh84" type="veh_passenger" depart="15.55" departLane="best" departSpeed="max" from="1061456423" to="30838709"/>
    <trip id="veh85" type="veh_passenger" depart="15.73" departLane="best" departSpeed="max" from="1061456423" to="30042374"/>
    <trip id="veh87" type="veh_passenger" depart="16.10" departLane="best" departSpeed="max" from="175598144#0" to="30834259"/>
    <trip id="veh88" type="veh_passenger" depart="16.29" departLane="best" departSpeed="max" from="1051962154" to="30042374"/>
    <trip id="veh89" type="veh_passenger" depart="16.47" departLane="best" departSpeed="max" from="225935793#0" to="30834259"/>
    <trip id="veh90" type="veh_passenger" depart="16.66" departLane="best" departSpeed="max" from="175598144#0" to="30834259"/>
    <trip id="veh91" type="veh_passenger" depart="16.84" departLane="best" departSpeed="max" from="1051962154" to="30834259"/>
    <trip id="veh92" type="veh_passenger" depart="17.03" departLane="best" departSpeed="max" from="175598144#0" to="30838709"/>
    <trip id="veh93" type="veh_passenger" depart="17.21" departLane="best" departSpeed="max" from="1051962154" to="1071049924"/>
    <trip id="veh94" type="veh_passenger" depart="17.40" departLane="best" departSpeed="max" from="175598144#0" to="30834259"/>
    <trip id="veh95" type="veh_passenger" depart="17.58" departLane="best" departSpeed="max" from="1051962154" to="1071049924"/>
    <trip id="veh97" type="veh_passenger" depart="17.95" departLane="best" departSpeed="max" from="175598144#0" to="30834259"/>
    <trip id="veh98" type="veh_passenger" depart="18.14" departLane="best" departSpeed="max" from="175598144#0" to="30838709"/>
    <trip id="veh99" type="veh_passenger" depart="18.32" departLane="best" departSpeed="max" from="1051962154" to="30834259"/>
    <trip id="veh100" type="veh_passenger" depart="18.51" departLane="best" departSpeed="max" from="1051962154" to="30042374"/>
    <trip id="veh101" type="veh_passenger" depart="18.69" departLane="best" departSpeed="max" from="175598144#0" to="30042374"/>
    <trip id="veh102" type="veh_passenger" depart="18.88" departLane="best" departSpeed="max" from="1061456423" to="30838709"/>
    <trip id="veh103" type="veh_passenger" depart="19.06" departLane="best" departSpeed="max" from="1051962154" to="30042374"/>
    <trip id="veh105" type="veh_passenger" depart="19.43" departLane="best" departSpeed="max" from="1051962154" to="1071049924"/>
    <trip id="veh106" type="veh_passenger" depart="19.62" departLane="best" departSpeed="max" from="1061456423" to="30838709"/>
    <trip id="veh108" type="veh_passenger" depart="19.99" departLane="best" departSpeed="max" from="1061456423" to="1071049924"/>
    <trip id="veh109" type="veh_passenger" depart="20.17" departLane="best" departSpeed="max" from="225935793#0" to="30834259"/>
    <trip id="veh110" type="veh_passenger" depart="20.36" departLane="best" departSpeed="max" from="175598144#0" to="30838709"/>
    <trip id="veh111" type="veh_passenger" depart="20.54" departLane="best" departSpeed="max" from="175598144#0" to="30838709"/>
    <trip id="veh112" type="veh_passenger" depart="20.73" departLane="best" departSpeed="max" from="1051962154" to="1071049924"/>
    <trip id="veh113" type="veh_passenger" depart="20.91" departLane="best" departSpeed="max" from="1051962154" to="30834259"/>
    <trip id="veh114" type="veh_passenger" depart="21.10" departLane="best" departSpeed="max" from="175598144#0" to="30042374"/>
    <trip id="veh115" type="veh_passenger" depart="21.28" departLane="best" departSpeed="max" from="1061456423" to="30838709"/>
    <trip id="veh117" type="veh_passenger" depart="21.65" departLane="best" departSpeed="max" from="1061456423" to="30042374"/>
    <trip id="veh118" type="veh_passenger" depart="21.84" departLane="best" departSpeed="max" from="175598144#0" to="30042374"/>
    <trip id="veh119" type="veh_passenger" depart="22.02" departLane="best" departSpeed="max" from="175598144#0" to="30834259"/>
    <trip id="veh120" type="veh_passenger" depart="22.21" departLane="best" departSpeed="max" from="1061456423" to="1071049924"/>
    <trip id="veh121" type="veh_passenger" depart="22.39" departLane="best" departSpeed="max" from="225935793#0" to="30834259"/>
    <trip id="veh122" type="veh_passenger" depart="22.58" departLane="best" departSpeed="max" from="225935793#0" to="30834259"/>
    <trip id="veh123" type="veh_passenger" depart="22.76" departLane="best" departSpeed="max" from="1051962154" to="1071049924"/>
    <trip id="veh124" type="veh_passenger" depart="22.95" departLane="best" departSpeed="max" from="1061456423" to="30838709"/>
    <trip id="veh127" type="veh_passenger" depart="23.50" departLane="best" departSpeed="max" from="1051962154" to="1071049924"/>
    <trip id="veh131" type="veh_passenger" depart="24.24" departLane="best" departSpeed="max" from="1051962154" to="30834259"/>
    <trip id="veh132" type="veh_passenger" depart="24.43" departLane="best" departSpeed="max" from="1061456423" to="30838709"/>
    <trip id="veh136" type="veh_passenger" depart="25.17" departLane="best" departSpeed="max" from="1061456423" to="30042374"/>
    <trip id="veh138" type="veh_passenger" depart="25.54" departLane="best" departSpeed="max" from="1051962154" to="1071049924"/>
    <trip id="veh139" type="veh_passenger" depart="25.73" departLane="best" departSpeed="max" from="1061456423" to="30838709"/>
    <trip id="veh140" type="veh_passenger" depart="25.91" departLane="best" departSpeed="max" from="175598144#0" to="30042374"/>
    <trip id="veh141" type="veh_passenger" depart="26.10" departLane="best" departSpeed="max" from="225935793#0" to="30834259"/>
    <trip id="veh144" type="veh_passenger" depart="26.65" departLane="best" departSpeed="max" from="1051962154" to="30042374"/>
    <trip id="veh145" type="veh_passenger" depart="26.84" departLane="best" departSpeed="max" from="175598144#0" to="30042374"/>
    <trip id="veh146" type="veh_passenger" depart="27.02" departLane="best" departSpeed="max" from="175598144#0" to="30834259"/>
    <trip id="veh147" type="veh_passenger" depart="27.21" departLane="best" departSpeed="max" from="175598144#0" to="30834259"/>
    <trip id="veh148" type="veh_passenger" depart="27.39" departLane="best" departSpeed="max" from="175598144#0" to="30834259"/>
    <trip id="veh149" type="veh_passenger" depart="27.58" departLane="best" departSpeed="max" from="1061456423" to="1071049924"/>
    <trip id="veh150" type="veh_passenger" depart="27.76" departLane="best" departSpeed="max" from="175598144#0" to="30042374"/>
    <trip id="veh151" type="veh_passenger" depart="27.95" departLane="best" departSpeed="max" from="1061456423" to="30838709"/>
    <trip id="veh152" type="veh_passenger" depart="28.13" departLane="best" departSpeed="max" from="175598144#0" to="30042374"/>
    <trip id="veh153" type="veh_passenger" depart="28.32" departLane="best" departSpeed="max" from="1061456423" to="30042374"/>
    <trip id="veh154" type="veh_passenger" depart="28.50" departLane="best" departSpeed="max" from="1061456423" to="30042374"/>
    <trip id="veh155" type="veh_passenger" depart="28.69" departLane="best" departSpeed="max" from="1051962154" to="30042374"/>
    <trip id="veh156" type="veh_passenger" depart="28.87" departLane="best" departSpeed="max" from="225935793#0" to="30834259"/>
    <trip id="veh157" type="veh_passenger" depart="29.06" departLane="best" departSpeed="max" from="225935793#0" to="30834259"/>
    <trip id="veh158" type="veh_passenger" depart="29.24" departLane="best" departSpeed="max" from="1051962154" to="30042374"/>
    <trip id="veh159" type="veh_passenger" depart="29.43" departLane="best" departSpeed="max" from="175598144#0" to="30042374"/>
    <trip id="veh160" type="veh_passenger" depart="29.61" departLane="best" departSpeed="max" from="1061456423" to="1071049924"/>
    <trip id="veh161" type="veh_passenger" depart="29.80" departLane="best" departSpeed="max" from="1061456423" to="30838709"/>
    <trip id="veh163" type="veh_passenger" depart="30.17" departLane="best" departSpeed="max" from="1051962154" to="30834259"/>
    <trip id="veh164" type="veh_passenger" depart="30.35" departLane="best" departSpeed="max" from="175598144#0" to="30042374"/>
    <trip id="veh166" type="veh_passenger" depart="30.72" departLane="best" departSpeed="max" from="1051962154" to="1071049924"/>
    <trip id="veh167" type="veh_passenger" depart="30.91" departLane="best" departSpeed="max" from="1051962154" to="30042374"/>
    <trip id="veh169" type="veh_passenger" depart="31.28" departLane="best" departSpeed="max" from="1051962154" to="30834259"/>
    <trip id="veh170" type="veh_passenger" depart="31.46" departLane="best" departSpeed="max" from="1061456423" to="1071049924"/>
    <trip id="veh172" type="veh_passenger" depart="31.83" departLane="best" departSpeed="max" from="1051962154" to="30042374"/>
    <trip id="veh173" type="veh_passenger" depart="32.02" departLane="best" departSpeed="max" from="1061456423" to="30838709"/>
    <trip id="veh174" type="veh_passenger" depart="32.20" departLane="best" departSpeed="max" from="175598144#0" to="30838709"/>
    <trip id="veh175" type="veh_passenger" depart="32.39" departLane="best" departSpeed="max" from="175598144#0" to="30838709"/>
    <trip id="veh176" type="veh_passenger" depart="32.57" departLane="best" departSpeed="max" from="225935793#0" to="30834259"/>
    <trip id="veh177" type="veh_passenger" depart="32.76" departLane="best" departSpeed="max" from="175598144#0" to="30834259"/>
    <trip id="veh178" type="veh_passenger" depart="32.94" departLane="best" departSpeed="max" from="225935793#0" to="30834259"/>
    <trip id="veh179" type="veh_passenger" depart="33.13" departLane="best" departSpeed="max" from="225935793#0" to="30834259"/>
    <trip id="veh180" type="veh_passenger" depart="33.31" departLane="best" departSpeed="max" from="1061456423" to="30042374"/>
    <trip id="veh181" type="veh_passenger" depart="33.50" departLane="best" departSpeed="max" from="1051962154" to="30834259"/>
    <trip id="veh182" type="veh_passenger" depart="33.68" departLane="best" departSpeed="max" from="225935793#0" to="30834259"/>
    <trip id="veh183" type="veh_passenger" depart="33.87" departLane="best" departSpeed="max" from="175598144#0" to="30042374"/>
    <trip id="veh184" type="veh_passenger" depart="34.05" departLane="best" departSpeed="max" from="1051962154" to="30042374"/>
    <trip id="veh185" type="veh_passenger" depart="34.24" departLane="best" departSpeed="max" from="1061456423" to="30042374"/>
    <trip id="veh186" type="veh_passenger" depart="34.42" departLane="best" departSpeed="max" from="1051962154" to="30834259"/>
    <trip id="veh187" type="veh_passenger" depart="34.61" departLane="best" departSpeed="max" from="1061456423" to="1071049924"/>
    <trip id="veh188" type="veh_passenger" depart="34.79" departLane="best" departSpeed="max" from="1061456423" to="30838709"/>
    <trip id="veh189" type="veh_passenger" depart="34.98" departLane="best" departSpeed="max" from="175598144#0" to="30834259"/>
    <trip id="veh191" type="veh_passenger" depart="35.35" departLane="best" departSpeed="max" from="1061456423" to="1071049924"/>
    <trip id="veh192" type="veh_passenger" depart="35.53" departLane="best" departSpeed="max" from="1061456423" to="30838709"/>
    <trip id="veh194" type="veh_passenger" depart="35.90" departLane="best" departSpeed="max" from="175598144#0" to="30834259"/>
    <trip id="veh195" type="veh_passenger" depart="36.09" departLane="best" departSpeed="max" from="1051962154" to="1071049924"/>
    <trip id="veh196" type="veh_passenger" depart="36.27" departLane="best" departSpeed="max" from="1061456423" to="1071049924"/>
    <trip id="veh197" type="veh_passenger" depart="36.46" departLane="best" departSpeed="max" from="1061456423" to="1071049924"/>
    <trip id="veh198" type="veh_passenger" depart="36.65" departLane="best" departSpeed="max" from="1061456423" to="1071049924"/>
    <trip id="veh199" type="veh_passenger" depart="36.83" departLane="best" departSpeed="max" from="1051962154" to="30834259"/>
    <trip id="veh200" type="veh_passenger" depart="37.02" departLane="best" departSpeed="max" from="1051962154" to="30042374"/>
    <trip id="veh201" type="veh_passenger" depart="37.20" departLane="best" departSpeed="max" from="1051962154" to="30042374"/>
    <trip id="veh202" type="veh_passenger" depart="37.39" departLane="best" departSpeed="max" from="1051962154" to="30042374"/>
    <trip id="veh204" type="veh_passenger" depart="37.76" departLane="best" departSpeed="max" from="1061456423" to="1071049924"/>
    <trip id="veh205" type="veh_passenger" depart="37.94" departLane="best" departSpeed="max" from="1051962154" to="30834259"/>
    <trip id="veh206" type="veh_passenger" depart="38.13" departLane="best" departSpeed="max" from="175598144#0" to="30838709"/>
    <trip id="veh207" type="veh_passenger" depart="38.31" departLane="best" departSpeed="max" from="175598144#0" to="30838709"/>
    <trip id="veh209" type="veh_passenger" depart="38.68" departLane="best" departSpeed="max" from="1051962154" to="1071049924"/>
    <trip id="veh210" type="veh_passenger" depart="38.87" departLane="best" departSpeed="max" from="1051962154" to="30834259"/>
    <trip id="veh211" type="veh_passenger" depart="39.05" departLane="best" departSpeed="max" from="175598144#0" to="30838709"/>
    <trip id="veh212" type="veh_passenger" depart="39.24" departLane="best" departSpeed="max" from="1051962154" to="30834259"/>
    <trip id="veh214" type="veh_passenger" depart="39.61" departLane="best" departSpeed="max" from="1051962154" to="1071049924"/>
    <trip id="veh215" type="veh_passenger" depart="39.79" departLane="best" departSpeed="max" from="175598144#0" to="30834259"/>
    <trip id="veh216" type="veh_passenger" depart="39.98" departLane="best" departSpeed="max" from="225935793#0" to="30834259"/>
    <trip id="veh217" type="veh_passenger" depart="40.16" departLane="best" departSpeed="max" from="1061456423" to="30042374"/>
    <trip id="veh218" type="veh_passenger" depart="40.35" departLane="best" departSpeed="max" from="175598144#0" to="30042374"/>
    <trip id="veh220" type="veh_passenger" depart="40.72" departLane="best" departSpeed="max" from="175598144#0" to="30838709"/>
    <trip id="veh221" type="veh_passenger" depart="40.90" departLane="best" departSpeed="max" from="175598144#0" to="30042374"/>
    <trip id="veh222" type="veh_passenger" depart="41.09" departLane="best" departSpeed="max" from="175598144#0" to="30838709"/>
    <trip id="veh223" type="veh_passenger" depart="41.27" departLane="best" departSpeed="max" from="1061456423" to="30838709"/>
    <trip id="veh224" type="veh_passenger" depart="41.46" departLane="best" departSpeed="max" from="175598144#0" to="30042374"/>
    <trip id="veh225" type="veh_passenger" depart="41.64" departLane="best" departSpeed="max" from="1061456423" to="30838709"/>
    <trip id="veh228" type="veh_passenger" depart="42.20" departLane="best" departSpeed="max" from="1061456423" to="1071049924"/>
    <trip id="veh230" type="veh_passenger" depart="42.57" departLane="best" departSpeed="max" from="1061456423" to="30838709"/>
    <trip id="veh231" type="veh_passenger" depart="42.75" departLane="best" departSpeed="max" from="175598144#0" to="30042374"/>
    <trip id="veh232" type="veh_passenger" depart="42.94" departLane="best" departSpeed="max" from="1051962154" to="30834259"/>
    <trip id="veh233" type="veh_passenger" depart="43.12" departLane="best" departSpeed="max" from="1061456423" to="30838709"/>
    <trip id="veh234" type="veh_passenger" depart="43.31" departLane="best" departSpeed="max" from="175598144#0" to="30834259"/>
    <trip id="veh235" type="veh_passenger" depart="43.49" departLane="best" departSpeed="max" from="1061456423" to="30838709"/>
    <trip id="veh236" type="veh_passenger" depart="43.68" departLane="best" departSpeed="max" from="1051962154" to="1071049924"/>
    <trip id="veh237" type="veh_passenger" depart="43.86" departLane="best" departSpeed="max" from="175598144#0" to="30042374"/>
    <trip id="veh238" type="veh_passenger" depart="44.05" departLane="best" departSpeed="max" from="175598144#0" to="30042374"/>
    <trip id="veh239" type="veh_passenger" depart="44.23" departLane="best" departSpeed="max" from="175598144#0" to="30042374"/>
    <trip id="veh240" type="veh_passenger" depart="44.42" departLane="best" departSpeed="max" from="175598144#0" to="30042374"/>
    <trip id="veh241" type="veh_passenger" depart="44.60" departLane="best" departSpeed="max" from="175598144#0" to="30042374"/>
    <trip id="veh242" type="veh_passenger" depart="44.79" departLane="best" departSpeed="max" from="1061456423" to="1071049924"/>
    <trip id="veh243" type="veh_passenger" depart="44.97" departLane="best" departSpeed="max" from="1051962154" to="1071049924"/>
    <trip id="veh244" type="veh_passenger" depart="45.16" departLane="best" departSpeed="max" from="175598144#0" to="30838709"/>
    <trip id="veh245" type="veh_passenger" depart="45.34" departLane="best" departSpeed="max" from="1051962154" to="1071049924"/>
    <trip id="veh246" type="veh_passenger" depart="45.53" departLane="best" departSpeed="max" from="225935793#0" to="30834259"/>
    <trip id="veh247" type="veh_passenger" depart="45.71" departLane="best" departSpeed="max" from="1061456423" to="1071049924"/>
    <trip id="veh248" type="veh_passenger" depart="45.90" departLane="best" departSpeed="max" from="1051962154" to="1071049924"/>
    <trip id="veh249" type="veh_passenger" depart="46.08" departLane="best" departSpeed="max" from="1051962154" to="1071049924"/>
    <trip id="veh250" type="veh_passenger" depart="46.27" departLane="best" departSpeed="max" from="175598144#0" to="30042374"/>
    <trip id="veh251" type="veh_passenger" depart="46.45" departLane="best" departSpeed="max" from="225935793#0" to="30834259"/>
    <trip id="veh252" type="veh_passenger" depart="46.64" departLane="best" departSpeed="max" from="225935793#0" to="30834259"/>
    <trip id="veh253" type="veh_passenger" depart="46.82" departLane="best" departSpeed="max" from="1061456423" to="30042374"/>
    <trip id="veh254" type="veh_passenger" depart="47.01" departLane="best" departSpeed="max" from="1051962154" to="1071049924"/>
    <trip id="veh255" type="veh_passenger" depart="47.19" departLane="best" departSpeed="max" from="1051962154" to="30834259"/>
    <trip id="veh256" type="veh_passenger" depart="47.38" departLane="best" departSpeed="max" from="1051962154" to="1071049924"/>
    <trip id="veh257" type="veh_passenger" depart="47.56" departLane="best" departSpeed="max" from="175598144#0" to="30042374"/>
    <trip id="veh259" type="veh_passenger" depart="47.93" departLane="best" departSpeed="max" from="225935793#0" to="30834259"/>