<?xml version="1.0" encoding="UTF-8"?>

<!-- generated on 2024-06-01 06:00:29.825397 by osmWebWizard.py v1_18_0+0000-03ecfdea036
<configuration>
    <net-file value="/home/veins/workspace.omnetpp/veins/examples/veins/maps/paris_1000/osm.net.xml.gz"/>
    <output-trip-file value="/home/veins/workspace.omnetpp/veins/examples/veins/maps/paris_1000/osm.passenger.trips.xml"/>
    <route-file value="/home/veins/workspace.omnetpp/veins/examples/veins/maps/paris_1000/osm.passenger.rou.xml"/>
    <prefix value="veh"/>
    <trip-attributes value="departLane=&quot;best&quot;"/>
    <fringe-start-attributes value="departSpeed=&quot;max&quot;"/>
    <vehicle-class value="passenger"/>
    <lanes value="True"/>
    <fringe-factor value="5"/>
    <allow-fringe.min-length value="1000.0"/>
    <via-edge-types value="highway.motorway,highway.motorway_link,highway.trunk_link,highway.primary_link,highway.secondary_link,highway.tertiary_link"/>
    <min-distance value="300.0"/>
    <min-distance.fringe value="10.0"/>
    <remove-loops value="True"/>
    <validate value="True"/>
    <insertion-density value="1000.0"/>
</configuration>
-->

<!-- generated on 2024-06-01 06:00:29 by Eclipse SUMO duarouter Version 1.18.0
<configuration xmlns:xsi="http://www.w3.org/2001/XMLSchema-instance" xsi:noNamespaceSchemaLocation="http://sumo.dlr.de/xsd/duarouterConfiguration.xsd">

    <input>
        <net-file value="/home/veins/workspace.omnetpp/veins/examples/veins/maps/paris_1000/osm.net.xml.gz"/>
        <route-files value="/home/veins/workspace.omnetpp/veins/examples/veins/maps/paris_1000/osm.passenger.trips.xml"/>
    </input>

    <output>
        <output-file value="/home/veins/workspace.omnetpp/veins/examples/veins/maps/paris_1000/osm.passenger.trips.xml.tmp"/>
        <alternatives-output value="NUL"/>
        <write-trips value="true"/>
    </output>

    <processing>
        <remove-loops value="true"/>
    </processing>

    <time>
        <begin value="0.0"/>
        <end value="3600.0"/>
    </time>

    <report>
        <no-warnings value="true"/>
        <ignore-errors value="true"/>
        <no-step-log value="true"/>
    </report>

</configuration>
-->

<routes xmlns:xsi="http://www.w3.org/2001/XMLSchema-instance" xsi:noNamespaceSchemaLocation="http://sumo.dlr.de/xsd/routes_file.xsd">
    <vType id="veh_passenger" vClass="passenger"/>
    <trip id="veh0" type="veh_passenger" depart="0.00" departLane="best" departSpeed="max" from="4450686#0" to="24911190"/>
    <trip id="veh1" type="veh_passenger" depart="0.22" departLane="best" from="566475377#0" to="-564199960"/>
    <trip id="veh2" type="veh_passenger" depart="0.43" departLane="best" from="566475377#0" to="553772533#0"/>
    <trip id="veh3" type="veh_passenger" depart="0.65" departLane="best" departSpeed="max" from="933782683" to="-31544800#3"/>
    <trip id="veh4" type="veh_passenger" depart="0.87" departLane="best" departSpeed="max" from="-626668696#6" to="24911190"/>
    <trip id="veh5" type="veh_passenger" depart="1.08" departLane="best" departSpeed="max" from="-41872851" to="314456033#0"/>
    <trip id="veh6" type="veh_passenger" depart="1.30" departLane="best" from="-314456032#3" to="-564199960"/>
    <trip id="veh7" type="veh_passenger" depart="1.52" departLane="best" departSpeed="max" from="4450686#0" to="31544845"/>
    <trip id="veh8" type="veh_passenger" depart="1.73" departLane="best" departSpeed="max" from="-626668696#6" to="-4039896#4"/>
    <trip id="veh9" type="veh_passenger" depart="1.95" departLane="best" departSpeed="max" from="-314456033#2" to="-31544800#3"/>
    <trip id="veh10" type="veh_passenger" depart="2.16" departLane="best" departSpeed="max" from="874587077#0" to="41872851"/>
    <trip id="veh11" type="veh_passenger" depart="2.38" departLane="best" departSpeed="max" from="-626668696#6" to="31544845"/>
    <trip id="veh12" type="veh_passenger" depart="2.60" departLane="best" departSpeed="max" from="874587077#0" to="41872851"/>
    <trip id="veh13" type="veh_passenger" depart="2.81" departLane="best" departSpeed="max" from="874587077#0" to="41872851"/>
    <trip id="veh14" type="veh_passenger" depart="3.03" departLane="best" departSpeed="max" from="564199960" to="-31544800#3"/>
    <trip id="veh15" type="veh_passenger" depart="3.25" departLane="best" departSpeed="max" from="-41872851" to="812822163#0"/>
    <trip id="veh16" type="veh_passenger" depart="3.46" departLane="best" departSpeed="max" from="-314456033#2" to="-564199960"/>
    <trip id="veh17" type="veh_passenger" depart="3.68" departLane="best" departSpeed="max" from="4450686#0" to="-816466391#1"/>
    <trip id="veh18" type="veh_passenger" depart="3.90" departLane="best" departSpeed="max" from="-626668696#6" to="-564199960"/>
    <trip id="veh19" type="veh_passenger" depart="4.11" departLane="best" from="795908927" to="812822162"/>
    <trip id="veh20" type="veh_passenger" depart="4.33" departLane="best" departSpeed="max" from="-41872851" to="553772533#0"/>
    <trip id="veh22" type="veh_passenger" depart="4.76" departLane="best" departSpeed="max" from="933782683" to="4444183#0"/>
    <trip id="veh23" type="veh_passenger" depart="4.98" departLane="best" departSpeed="max" from="4039896#0" to="553772533#0"/>
    <trip id="veh24" type="veh_passenger" depart="5.20" departLane="best" departSpeed="max" from="874587077#0" to="642901742#0"/>
    <trip id="veh25" type="veh_passenger" depart="5.41" departLane="best" departSpeed="max" from="-41872851" to="-31544800#3"/>
    <trip id="veh26" type="veh_passenger" depart="5.63" departLane="best" departSpeed="max" from="-626668696#6" to="-642898830#2"/>
    <trip id="veh27" type="veh_passenger" depart="5.85" departLane="best" departSpeed="max" from="-41872851" to="812822162"/>
    <trip id="veh28" type="veh_passenger" depart="6.06" departLane="best" departSpeed="max" from="874587077#0" to="-816466391#1"/>
    <trip id="veh29" type="veh_passenger" depart="6.28" departLane="best" departSpeed="max" from="4450686#0" to="-816466391#1"/>
    <trip id="veh30" type="veh_passenger" depart="6.49" departLane="best" departSpeed="max" from="933782683" to="314456033#0"/>
    <trip id="veh31" type="veh_passenger" depart="6.71" departLane="best" departSpeed="max" from="4039896#0" to="813587017#0"/>
    <trip id="veh32" type="veh_passenger" depart="6.93" departLane="best" departSpeed="max" from="4039896#0" to="-544549304#3"/>
    <trip id="veh33" type="veh_passenger" depart="7.14" departLane="best" departSpeed="max" from="-626668696#6" to="-564199960"/>
    <trip id="veh34" type="veh_passenger" depart="7.36" departLane="best" departSpeed="max" from="933782683" to="314456033#0"/>
    <trip id="veh35" type="veh_passenger" depart="7.58" departLane="best" departSpeed="max" from="-314456033#2" to="-31544800#3"/>
    <trip id="veh36" type="veh_passenger" depart="7.79" departLane="best" from="31544813#0" to="41872851"/>
    <trip id="veh37" type="veh_passenger" depart="8.01" departLane="best" departSpeed="max" from="-314456033#2" to="-816466391#1"/>
    <trip id="veh38" type="veh_passenger" depart="8.23" departLane="best" departSpeed="max" from="933782683" to="-31544813#3"/>
    <trip id="veh39" type="veh_passenger" depart="8.44" departLane="best" departSpeed="max" from="933782683" to="642901742#0"/>
    <trip id="veh40" type="veh_passenger" depart="8.66" departLane="best" from="-1286323656" to="553772533#0"/>
    <trip id="veh41" type="veh_passenger" depart="8.88" departLane="best" departSpeed="max" from="4450686#0" to="31544845"/>
    <trip id="veh42" type="veh_passenger" depart="9.09" departLane="best" from="-642898830#2" to="812822162"/>
    <trip id="veh43" type="veh_passenger" depart="9.31" departLane="best" departSpeed="max" from="874587077#0" to="813587017#0"/>
    <trip id="veh44" type="veh_passenger" depart="9.53" departLane="best" departSpeed="max" from="933782683" to="642901742#0"/>
    <trip id="veh45" type="veh_passenger" depart="9.74" departLane="best" departSpeed="max" from="-626668696#6" to="4444183#0"/>
    <trip id="veh46" type="veh_passenger" depart="9.96" departLane="best" from="-1286323656" to="-4039896#4"/>
    <trip id="veh47" type="veh_passenger" depart="10.18" departLane="best" from="795908927" to="31544845"/>
    <trip id="veh48" type="veh_passenger" depart="10.39" departLane="best" from="-1286323656" to="-816466391#1"/>
    <trip id="veh49" type="veh_passenger" depart="10.61" departLane="best" from="-314456032#3" to="812822162"/>
    <trip id="veh50" type="veh_passenger" depart="10.82" departLane="best" departSpeed="max" from="874587077#0" to="642901742#0"/>
    <trip id="veh51" type="veh_passenger" depart="11.04" departLane="best" departSpeed="max" from="-626668696#6" to="-31544800#3"/>
    <trip id="veh52" type="veh_passenger" depart="11.26" departLane="best" departSpeed="max" from="874587077#0" to="812822162"/>
    <trip id="veh53" type="veh_passenger" depart="11.47" departLane="best" departSpeed="max" from="-314456033#2" to="-566475377#3"/>
    <trip id="veh54" type="veh_passenger" depart="11.69" departLane="best" from="795908927" to="-4039896#4"/>
    <trip id="veh55" type="veh_passenger" depart="11.91" departLane="best" from="795908927" to="642901742#0"/>
    <trip id="veh56" type="veh_passenger" depart="12.12" departLane="best" departSpeed="max" from="-626668696#6" to="-564199960"/>
    <trip id="veh57" type="veh_passenger" depart="12.34" departLane="best" departSpeed="max" from="-41872851" to="-816466391#1"/>
    <trip id="veh58" type="veh_passenger" depart="12.56" departLane="best" departSpeed="max" from="933782683" to="553772533#0"/>
    <trip id="veh59" type="veh_passenger" depart="12.77" departLane="best" departSpeed="max" from="-31544817" to="-564199960"/>
    <trip id="veh60" type="veh_passenger" depart="12.99" departLane="best" departSpeed="max" from="-626668696#6" to="41872851"/>
    <trip id="veh61" type="veh_passenger" depart="13.21" departLane="best" departSpeed="max" from="-41872851" to="-564199960"/>
    <trip id="veh62" type="veh_passenger" depart="13.42" departLane="best" departSpeed="max" from="-314456033#2" to="41872851"/>
    <trip id="veh63" type="veh_passenger" depart="13.64" departLane="best" departSpeed="max" from="-41872851" to="-544549304#3"/>
    <trip id="veh64" type="veh_passenger" depart="13.86" departLane="best" departSpeed="max" from="-41872851" to="553772533#0"/>
    <trip id="veh65" type="veh_passenger" depart="14.07" departLane="best" departSpeed="max" from="-41872851" to="-4039896#4"/>
    <trip id="veh66" type="veh_passenger" depart="14.29" departLane="best" departSpeed="max" from="933782683" to="41872851"/>
    <trip id="veh67" type="veh_passenger" depart="14.50" departLane="best" from="-812822163#3" to="642901742#0"/>
    <trip id="veh68" type="veh_passenger" depart="14.72" departLane="best" from="566475377#0" to="553772533#0"/>
    <trip id="veh69" type="veh_passenger" depart="14.94" departLane="best" departSpeed="max" from="933782683" to="-31544800#3"/>
    <trip id="veh70" type="veh_passenger" depart="15.15" departLane="best" departSpeed="max" from="-626668696#6" to="-816466391#1"/>
    <trip id="veh71" type="veh_passenger" depart="15.37" departLane="best" departSpeed="max" from="874587077#0" to="813587017#0"/>
    <trip id="veh72" type="veh_passenger" depart="15.59" departLane="best" departSpeed="max" from="-41872851" to="314456033#0"/>
    <trip id="veh73" type="veh_passenger" depart="15.80" departLane="best" departSpeed="max" from="-626668696#6" to="812822163#0"/>
    <trip id="veh74" type="veh_passenger" depart="16.02" departLane="best" from="795908927" to="812822162"/>
    <trip id="veh76" type="veh_passenger" depart="16.45" departLane="best" departSpeed="max" from="933782683" to="642901742#0"/>
    <trip id="veh77" type="veh_passenger" depart="16.67" departLane="best" departSpeed="max" from="933782683" to="812822162"/>
    <trip id="veh78" type="veh_passenger" depart="16.89" departLane="best" departSpeed="max" from="874587077#0" to="-544549304#3"/>
    <trip id="veh79" type="veh_passenger" depart="17.10" departLane="best" from="-314456032#3" to="-564199960"/>
    <trip id="veh80" type="veh_passenger" depart="17.32" departLane="best" departSpeed="max" from="-626668696#6" to="-31544800#3"/>
    <trip id="veh81" type="veh_passenger" depart="17.54" departLane="best" from="795908927" to="642901742#0"/>
    <trip id="veh82" type="veh_passenger" depart="17.75" departLane="best" departSpeed="max" from="933782683" to="813587017#0"/>
    <trip id="veh83" type="veh_passenger" depart="17.97" departLane="best" departSpeed="max" from="-31544817" to="-816466391#1"/>
    <trip id="veh84" type="veh_passenger" depart="18.19" departLane="best" departSpeed="max" from="933782683" to="41872851"/>
    <trip id="veh85" type="veh_passenger" depart="18.40" departLane="best" departSpeed="max" from="-314456033#2" to="41872851"/>
    <trip id="veh87" type="veh_passenger" depart="18.83" departLane="best" departSpeed="max" from="-31544817" to="-812822163#3"/>
    <trip id="veh88" type="veh_passenger" depart="19.05" departLane="best" departSpeed="max" from="-314456033#2" to="-544549304#3"/>
    <trip id="veh89" type="veh_passenger" depart="19.27" departLane="best" from="-1286323656" to="553772533#0"/>
    <trip id="veh90" type="veh_passenger" depart="19.48" departLane="best" departSpeed="max" from="-41872851" to="-31544813#3"/>
    <trip id="veh91" type="veh_passenger" depart="19.70" departLane="best" departSpeed="max" from="933782683" to="-566475377#3"/>
    <trip id="veh92" type="veh_passenger" depart="19.92" departLane="best" from="4444183#0" to="41872851"/>
    <trip id="veh93" type="veh_passenger" depart="20.13" departLane="best" departSpeed="max" from="-626668696#6" to="41872851"/>
    <trip id="veh94" type="veh_passenger" depart="20.35" departLane="best" from="31544813#0" to="812822162"/>
    <trip id="veh95" type="veh_passenger" depart="20.57" departLane="best" departSpeed="max" from="-41872851" to="553772533#0"/>
    <trip id="veh96" type="veh_passenger" depart="20.78" departLane="best" departSpeed="max" from="-41872851" to="-816466391#1"/>
    <trip id="veh97" type="veh_passenger" depart="21.00" departLane="best" departSpeed="max" from="4450686#0" to="-816466391#1"/>
    <trip id="veh98" type="veh_passenger" depart="21.22" departLane="best" departSpeed="max" from="933782683" to="813587017#0"/>
    <trip id="veh99" type="veh_passenger" depart="21.43" departLane="best" departSpeed="max" from="-314456033#2" to="-564199960"/>
    <trip id="veh100" type="veh_passenger" depart="21.65" departLane="best" from="795908927" to="812822162"/>
    <trip id="veh101" type="veh_passenger" depart="21.87" departLane="best" departSpeed="max" from="874587077#0" to="642901742#0"/>
    <trip id="veh102" type="veh_passenger" depart="22.08" departLane="best" departSpeed="max" from="-626668696#6" to="-4039896#4"/>
    <trip id="veh103" type="veh_passenger" depart="22.30" departLane="best" departSpeed="max" from="874587077#0" to="553772533#0"/>
    <trip id="veh104" type="veh_passenger" depart="22.52" departLane="best" departSpeed="max" from="4450686#0" to="813587017#0"/>
    <trip id="veh105" type="veh_passenger" depart="22.73" departLane="best" departSpeed="max" from="4450686#0" to="4444183#0"/>
    <trip id="veh106" type="veh_passenger" depart="22.95" departLane="best" departSpeed="max" from="874587077#0" to="-816466391#1"/>
    <trip id="veh107" type="veh_passenger" depart="23.16" departLane="best" departSpeed="max" from="4450686#0" to="812822162"/>
    <trip id="veh108" type="veh_passenger" depart="23.38" departLane="best" departSpeed="max" from="-31544817" to="-31544813#3"/>
    <trip id="veh109" type="veh_passenger" depart="23.60" departLane="best" from="566475377#0" to="41872851"/>
    <trip id="veh110" type="veh_passenger" depart="23.81" departLane="best" departSpeed="max" from="4450686#0" to="813587017#0"/>
    <trip id="veh111" type="veh_passenger" depart="24.03" departLane="best" departSpeed="max" from="-626668696#6" to="-642898830#2"/>
    <trip id="veh112" type="veh_passenger" depart="24.25" departLane="best" departSpeed="max" from="4450686#0" to="813587017#0"/>
    <trip id="veh113" type="veh_passenger" depart="24.46" departLane="best" from="795908927" to="31544845"/>
    <trip id="veh114" type="veh_passenger" depart="24.68" departLane="best" departSpeed="max" from="-626668696#6" to="4444183#0"/>
    <trip id="veh115" type="veh_passenger" depart="24.90" departLane="best" departSpeed="max" from="933782683" to="31544845"/>
    <trip id="veh116" type="veh_passenger" depart="25.11" departLane="best" departSpeed="max" from="874587077#0" to="41872851"/>
    <trip id="veh118" type="veh_passenger" depart="25.55" departLane="best" departSpeed="max" from="-626668696#6" to="-544549304#3"/>
    <trip id="veh119" type="veh_passenger" depart="25.76" departLane="best" from="813587017#0" to="642901742#0"/>
    <trip id="veh120" type="veh_passenger" depart="25.98" departLane="best" departSpeed="max" from="933782683" to="-564199960"/>
    <trip id="veh121" type="veh_passenger" depart="26.20" departLane="best" from="795908927" to="-31544800#3"/>
    <trip id="veh122" type="veh_passenger" depart="26.41" departLane="best" from="-812822163#3" to="642901742#0"/>
    <trip id="veh123" type="veh_passenger" depart="26.63" departLane="best" departSpeed="max" from="-626668696#6" to="41872851"/>
    <trip id="veh124" type="veh_passenger" depart="26.84" departLane="best" departSpeed="max" from="874587077#0" to="813587017#0"/>
    <trip id="veh125" type="veh_passenger" depart="27.06" departLane="best" from="813587017#0" to="642901742#0"/>
    <trip id="veh126" type="veh_passenger" depart="27.28" departLane="best" from="-314456032#3" to="553772533#0"/>
    <trip id="veh127" type="veh_passenger" depart="27.49" departLane="best" departSpeed="max" from="-626668696#6" to="812822162"/>
    <trip id="veh128" type="veh_passenger" depart="27.71" departLane="best" from="813587017#0" to="642901742#0"/>
    <trip id="veh129" type="veh_passenger" depart="27.93" departLane="best" departSpeed="max" from="874587077#0" to="642901742#0"/>
    <trip id="veh130" type="veh_passenger" depart="28.14" departLane="best" departSpeed="max" from="-41872851" to="642901742#0"/>
    <trip id="veh131" type="veh_passenger" depart="28.36" departLane="best" from="-642898830#2" to="-816466391#1"/>
    <trip id="veh132" type="veh_passenger" depart="28.58" departLane="best" from="-642898830#2" to="-564199960"/>
    <trip id="veh133" type="veh_passenger" depart="28.79" departLane="best" from="-314456032#3" to="-544549304#3"/>
    <trip id="veh134" type="veh_passenger" depart="29.01" departLane="best" departSpeed="max" from="933782683" to="812822163#0"/>
    <trip id="veh135" type="veh_passenger" depart="29.23" departLane="best" departSpeed="max" from="4450686#0" to="-816466391#1"/>
    <trip id="veh136" type="veh_passenger" depart="29.44" departLane="best" departSpeed="max" from="933782683" to="31544845"/>
    <trip id="veh137" type="veh_passenger" depart="29.66" departLane="best" departSpeed="max" from="933782683" to="-31544813#3"/>
    <trip id="veh138" type="veh_passenger" depart="29.88" departLane="best" departSpeed="max" from="933782683" to="813587017#0"/>
    <trip id="veh139" type="veh_passenger" depart="30.09" departLane="best" from="566475377#0" to="-816466391#1"/>
    <trip id="veh140" type="veh_passenger" depart="30.31" departLane="best" departSpeed="max" from="-626668696#6" to="41872851"/>
    <trip id="veh141" type="veh_passenger" depart="30.53" departLane="best" from="795908927" to="553772533#0"/>
    <trip id="veh142" type="veh_passenger" depart="30.74" departLane="best" from="-1286323656" to="812822162"/>
    <trip id="veh143" type="veh_passenger" depart="30.96" departLane="best" from="795908927" to="553772533#0"/>
    <trip id="veh144" type="veh_passenger" depart="31.17" departLane="best" departSpeed="max" from="-626668696#6" to="-31544800#3"/>
    <trip id="veh145" type="veh_passenger" depart="31.39" departLane="best" departSpeed="max" from="4450686#0" to="-816466391#1"/>
    <trip id="veh146" type="veh_passenger" depart="31.61" departLane="best" departSpeed="max" from="564199960" to="-816466391#1"/>
    <trip id="veh147" type="veh_passenger" depart="31.82" departLane="best" departSpeed="max" from="-626668696#6" to="24911190"/>
    <trip id="veh148" type="veh_passenger" depart="32.04" departLane="best" departSpeed="max" from="-626668696#6" to="-816466391#1"/>
    <trip id="veh149" type="veh_passenger" depart="32.26" departLane="best" departSpeed="max" from="-31544817" to="24911190"/>
    <trip id="veh150" type="veh_passenger" depart="32.47" departLane="best" departSpeed="max" from="933782683" to="553772533#0"/>
    <trip id="veh151" type="veh_passenger" depart="32.69" departLane="best" departSpeed="max" from="933782683" to="41872851"/>
    <trip id="veh152" type="veh_passenger" depart="32.91" departLane="best" departSpeed="max" from="-626668696#6" to="31544845"/>
    <trip id="veh153" type="veh_passenger" depart="33.12" departLane="best" departSpeed="max" from="-626668696#6" to="41872851"/>
    <trip id="veh154" type="veh_passenger" depart="33.34" departLane="best" departSpeed="max" from="4450686#0" to="314456033#0"/>
    <trip id="veh155" type="veh_passenger" depart="33.56" departLane="best" from="-642898830#2" to="-564199960"/>
    <trip id="veh156" type="veh_passenger" depart="33.77" departLane="best" departSpeed="max" from="4450686#0" to="-816466391#1"/>
    <trip id="veh157" type="veh_passenger" depart="33.99" departLane="best" departSpeed="max" from="874587077#0" to="553772533#0"/>
    <trip id="veh158" type="veh_passenger" depart="34.21" departLane="best" departSpeed="max" from="4450686#0" to="-564199960"/>
    <trip id="veh159" type="veh_passenger" depart="34.42" departLane="best" departSpeed="max" from="-41872851" to="24911190"/>
    <trip id="veh160" type="veh_passenger" depart="34.64" departLane="best" from="795908927" to="314456033#0"/>
    <trip id="veh161" type="veh_passenger" depart="34.85" departLane="best" departSpeed="max" from="-626668696#6" to="41872851"/>
    <trip id="veh162" type="veh_passenger" depart="35.07" departLane="best" departSpeed="max" from="-41872851" to="553772533#0"/>
    <trip id="veh163" type="veh_passenger" depart="35.29" departLane="best" departSpeed="max" from="4450686#0" to="4444183#0"/>
    <trip id="veh164" type="veh_passenger" depart="35.50" departLane="best" departSpeed="max" from="-41872851" to="812822163#0"/>
    <trip id="veh166" type="veh_passenger" depart="35.94" departLane="best" from="795908927" to="642901742#0"/>
    <trip id="veh167" type="veh_passenger" depart="36.15" departLane="best" departSpeed="max" from="4450686#0" to="813587017#0"/>
    <trip id="veh168" type="veh_passenger" depart="36.37" departLane="best" from="-1286323656" to="812822162"/>
    <trip id="veh169" type="veh_passenger" depart="36.59" departLane="best" departSpeed="max" from="933782683" to="41872851"/>
    <trip id="veh170" type="veh_passenger" depart="36.80" departLane="best" departSpeed="max" from="564199960" to="314456033#0"/>
    <trip id="veh171" type="veh_passenger" depart="37.02" departLane="best" departSpeed="max" from="874587077#0" to="31544845"/>
    <trip id="veh172" type="veh_passenger" depart="37.24" departLane="best" departSpeed="max" from="933782683" to="553772533#0"/>
    <trip id="veh173" type="veh_passenger" depart="37.45" departLane="best" departSpeed="max" from="4450686#0" to="813587017#0"/>
    <trip id="veh174" type="veh_passenger" depart="37.67" departLane="best" from="566475377#0" to="-816466391#1"/>
    <trip id="veh176" type="veh_passenger" depart="38.10" departLane="best" departSpeed="max" from="-41872851" to="553772533#0"/>
    <trip id="veh177" type="veh_passenger" depart="38.32" departLane="best" departSpeed="max" from="564199960" to="-31544800#3"/>
    <trip id="veh178" type="veh_passenger" depart="38.54" departLane="best" departSpeed="max" from="-626668696#6" to="31544845"/>
    <trip id="veh179" type="veh_passenger" depart="38.75" departLane="best" departSpeed="max" from="-626668696#6" to="-564199960"/>
    <trip id="veh180" type="veh_passenger" depart="38.97" departLane="best" departSpeed="max" from="-626668696#6" to="-544549304#3"/>
    <trip id="veh181" type="veh_passenger" depart="39.18" departLane="best" departSpeed="max" from="4039896#0" to="553772533#0"/>
    <trip id="veh182" type="veh_passenger" depart="39.40" departLane="best" departSpeed="max" from="874587077#0" to="-566475377#3"/>
    <trip id="veh183" type="veh_passenger" depart="39.62" departLane="best" departSpeed="max" from="-626668696#6" to="4444183#0"/>
    <trip id="veh184" type="veh_passenger" depart="39.83" departLane="best" departSpeed="max" from="874587077#0" to="812822162"/>
    <trip id="veh186" type="veh_passenger" depart="40.27" departLane="best" departSpeed="max" from="-41872851" to="-564199960"/>
    <trip id="veh187" type="veh_passenger" depart="40.48" departLane="best" departSpeed="max" from="-626668696#6" to="24911190"/>
    <trip id="veh188" type="veh_passenger" depart="40.70" departLane="best" departSpeed="max" from="-626668696#6" to="-4039896#4"/>
    <trip id="veh189" type="veh_passenger" depart="40.92" departLane="best" departSpeed="max" from="4450686#0" to="24911190"/>
    <trip id="veh190" type="veh_passenger" depart="41.13" departLane="best" departSpeed="max" from="-626668696#6" to="41872851"/>
    <trip id="veh191" type="veh_passenger" depart="41.35" departLane="best" departSpeed="max" from="-31544817" to="314456033#0"/>
    <trip id="veh192" type="veh_passenger" depart="41.57" departLane="best" departSpeed="max" from="-314456033#2" to="-816466391#1"/>
    <trip id="veh193" type="veh_passenger" depart="41.78" departLane="best" departSpeed="max" from="-41872851" to="-816466391#1"/>
    <trip id="veh194" type="veh_passenger" depart="42.00" departLane="best" from="795908927" to="642901742#0"/>
    <trip id="veh195" type="veh_passenger" depart="42.22" departLane="best" from="795908927" to="-31544800#3"/>
    <trip id="veh196" type="veh_passenger" depart="42.43" departLane="best" departSpeed="max" from="4450686#0" to="642901742#0"/>
    <trip id="veh197" type="veh_passenger" depart="42.65" departLane="best" departSpeed="max" from="4450686#0" to="553772533#0"/>
    <trip id="veh198" type="veh_passenger" depart="42.87" departLane="best" departSpeed="max" from="933782683" to="-564199960"/>
    <trip id="veh199" type="veh_passenger" depart="43.08" departLane="best" from="-314456032#3" to="-4039896#4"/>
    <trip id="veh200" type="veh_passenger" depart="43.30" departLane="best" departSpeed="max" from="-31544817" to="553772533#0"/>
    <trip id="veh201" type="veh_passenger" depart="43.51" departLane="best" departSpeed="max" from="4039896#0" to="-564199960"/>
    <trip id="veh202" type="veh_passenger" depart="43.73" departLane="best" departSpeed="max" from="564199960" to="-566475377#3"/>
    <trip id="veh203" type="veh_passenger" depart="43.95" departLane="best" departSpeed="max" from="874587077#0" to="812822163#0"/>
    <trip id="veh204" type="veh_passenger" depart="44.16" departLane="best" departSpeed="max" from="564199960" to="-31544800#3"/>
    <trip id="veh205" type="veh_passenger" depart="44.38" departLane="best" departSpeed="max" from="564199960" to="41872851"/>
    <trip id="veh206" type="veh_passenger" depart="44.60" departLane="best" departSpeed="max" from="-314456033#2" to="-566475377#3"/>
    <trip id="veh207" type="veh_passenger" depart="44.81" departLane="best" departSpeed="max" from="874587077#0" to="41872851"/>
    <trip id="veh208" type="veh_passenger" depart="45.03" departLane="best" departSpeed="max" from="-31544817" to="813587017#0"/>
    <trip id="veh209" type="veh_passenger" depart="45.25" departLane="best" from="-642898830#2" to="-816466391#1"/>
    <trip id="veh210" type="veh_passenger" depart="45.46" departLane="best" departSpeed="max" from="-626668696#6" to="-816466391#1"/>
    <trip id="veh212" type="veh_passenger" depart="45.90" departLane="best" departSpeed="max" from="874587077#0" to="642901742#0"/>
    <trip id="veh213" type="veh_passenger" depart="46.11" departLane="best" departSpeed="max" from="4450686#0" to="642901742#0"/>
    <trip id="veh214" type="veh_passenger" depart="46.33" departLane="best" departSpeed="max" from="564199960" to="24931206#0"/>
    <trip id="veh215" type="veh_passenger" depart="46.55" departLane="best" from="795908927" to="642901742#0"/>
    <trip id="veh216" type="veh_passenger" depart="46.76" departLane="best" from="795908927" to="642901742#0"/>
    <trip id="veh217" type="veh_passenger" depart="46.98" departLane="best" departSpeed="max" from="874587077#0" to="-566475377#3"/>
    <trip id="veh218" type="veh_passenger" depart="47.19" departLane="best" from="-642898830#2" to="41872851"/>
    <trip id="veh219" type="veh_passenger" depart="47.41" departLane="best" departSpeed="max" from="-626668696#6" to="24911190"/>
    <trip id="veh220" type="veh_passenger" depart="47.63" departLane="best" departSpeed="max" from="874587077#0" to="-544549304#3"/>
    <trip id="veh221" type="veh_passenger" depart="47.84" departLane="best" departSpeed="max" from="-41872851" to="642901742#0"/>
    <trip id="veh222" type="veh_passenger" depart="48.06" departLane="best" departSpeed="max" from="564199960" to="813587017#0"/>
    <trip id="veh223" type="veh_passenger" depart="48.28" departLane="best" from="-1286323656" to="812822162"/>
    <trip id="veh224" type="veh_passenger" depart="48.49" departLane="best" departSpeed="max" from="-314456033#2" to="553772533#0"/>
    <trip id="veh225" type="veh_passenger" depart="48.71" departLane="best" from="-314456032#3" to="553772533#0"/>
    <trip id="veh226" type="veh_passenger" depart="48.93" departLane="best" departSpeed="max" from="564199960" to="4444183#0"/>
    <trip id="veh227" type="veh_passenger" depart="49.14" departLane="best" from="-314456032#3" to="642901742#0"/>