<?xml version="1.0" encoding="UTF-8"?>

<!-- generated on Mon 03 Oct 2022 05:26:14 PM EDT by Eclipse SUMO netedit Version 1.8.0
<configuration xmlns:xsi="http://www.w3.org/2001/XMLSchema-instance" xsi:noNamespaceSchemaLocation="http://sumo.dlr.de/xsd/netconvertConfiguration.xsd">

    <input>
        <sumo-net-file value="/media/data/CARLA_0.9.13/Co-Simulation/Sumo/examples/plymouth_from_CARLA/plymouth.net.xml"/>
    </input>

    <output>
        <output-file value="/media/data/CARLA_0.9.13/Co-Simulation/Sumo/examples/plymouth_from_CARLA/plymouth.net.xml"/>
    </output>

    <processing>
        <geometry.min-radius.fix.railways value="false"/>
        <geometry.max-grade.fix value="false"/>
        <offset.disable-normalization value="true"/>
        <lefthand value="false"/>
    </processing>

    <junctions>
        <no-turnarounds value="true"/>
        <junctions.corner-detail value="5"/>
        <junctions.limit-turn-speed value="5.5"/>
        <rectangular-lane-cut value="true"/>
    </junctions>

    <pedestrian>
        <walkingareas value="false"/>
    </pedestrian>

    <netedit>
        <route-files value="/media/data/CARLA_0.9.13/Co-Simulation/Sumo/examples/plymouth_from_CARLA/plymouth.rou.xml"/>
    </netedit>

    <report>
        <aggregate-warnings value="5"/>
    </report>

</configuration>
-->

<routes xmlns:xsi="http://www.w3.org/2001/XMLSchema-instance" xsi:noNamespaceSchemaLocation="http://sumo.dlr.de/xsd/routes_file.xsd">
	<flow id="flow_WE" begin="0.00" from="E3" to="E4" end="3600.00" vehsPerHour="1112.00"/>
    <flow id="flow_WN" begin="0.00" from="E3" to="E6" end="3600.00" vehsPerHour="61.00"/>
    <flow id="flow_WS" begin="0.00" from="E3" to="-E5" end="3600.00" vehsPerHour="55.00"/>
    <flow id="flow_NE" begin="0.00" from="-E6" to="E4" end="3600.00" vehsPerHour="548.00"/>
    <flow id="flow_NW" begin="0.00" from="-E6" to="-E3" end="3600.00" vehsPerHour="102.00"/>
	<flow id="flow_NS" begin="0.00" from="-E6" to="-E5" end="3600.00" vehsPerHour="115.00"/>
    <flow id="flow_ES" begin="0.00" from="-E4" to="-E5" end="3600.00" vehsPerHour="76.00"/>
    <flow id="flow_EW" begin="0.00" from="-E4" to="-E3" end="3600.00" vehsPerHour="787.00"/>
    <flow id="flow_EN" begin="0.00" from="-E4" to="E6" end="3600.00" vehsPerHour="249.00"/>
    <flow id="flow_SN" begin="0.00" from="E5" to="E6" end="3600.00" vehsPerHour="176.00"/>
    <flow id="flow_SE" begin="0.00" from="E5" to="E4" end="3600.00" vehsPerHour="365.00"/>
    <flow id="flow_SW" begin="0.00" from="E5" to="-E3" end="3600.00" vehsPerHour="158.00"/>
</routes>
